48
wb97x-d4 ma-def2-tzvp(-f) cpcm(dmso) E: -1056.431056592859, G: -1056.05441739
 C          2.49320197   -0.84137601   -0.99336702
 C          3.39449310   -0.30468300    0.11583200
 O          4.07577705   -1.36579800    0.76019502
 C          2.58248210    0.52731502    1.09820604
 O          3.40986204    1.14061499    2.07701802
 C          1.88578105    1.64956701    0.34923801
 C          1.10338199    1.12863803   -0.85056102
 C          0.56297803    2.23146009   -1.74565697
 O         -0.32780999    1.73750603   -2.73107600
 O          1.78530705    0.21914899   -1.64210200
 O          0.97465700    2.35299611    1.17575204
 O          1.61894906   -1.77274704   -0.43794301
 H          0.08674200    0.59956098   -0.39119101
 H          3.09030008   -1.29329896   -1.78876901
 H          1.83490098   -0.10676200    1.58709896
 H          2.65892291    2.33171606   -0.03458300
 C          1.20555794   -2.79185510   -1.35654294
 H          3.41267395   -2.02017093    1.02122700
 H          0.01387900    2.95156288   -1.14074004
 H          1.41991699    2.74331594   -2.20141196
 H          1.46806502    2.68453693    1.93664706
 H          3.78883505    0.44343400    2.62627101
 H          0.17360000    1.17852902   -3.33708191
 H          2.07259607   -3.36694789   -1.69328105
 H          0.69440597   -2.35514593   -2.21850491
 H          0.52070200   -3.44282794   -0.81458199
 H          4.16020203    0.32893801   -0.33854899
 C         -2.35189199   -1.13296902    1.81680596
 C         -1.00721502   -0.48431700    1.39656603
 C         -3.46235895   -0.57186502    0.92299598
 C         -3.23600602   -1.06527197   -0.51024503
 C         -1.76409900   -0.77733201   -0.90460002
 N         -1.21991003    0.16561800    0.09001900
 H         -2.54468989   -0.90513301    2.86644602
 H         -0.68534702    0.28684899    2.09491801
 H         -4.43983078   -0.89387000    1.28526604
 H         -3.42101312   -2.13790202   -0.58838999
 H         -1.67872095   -0.32014701   -1.88825595
 H         -2.29392910   -2.21833110    1.71052802
 H         -0.21706200   -1.22421503    1.27982497
 C         -3.36939311    0.95730901    0.92764097
 H         -3.91462111   -0.55263799   -1.19547999
 H         -1.15621698   -1.67747796   -0.86540598
 C         -2.06040597    1.37352502    0.20739999
 H         -3.36937094    1.33323801    1.95298696
 H         -4.21872997    1.39974499    0.40435201
 H         -1.50233698    2.12087703    0.76712400
 H         -2.24721098    1.73708105   -0.80203801
