48
wb97x-d4 ma-def2-tzvp(-f) cpcm(dmso) E: -1056.43008120932, G: -1056.05358012
 C          2.28296900   -0.64502501   -1.47914600
 C          3.31537604   -0.54116499   -0.35934001
 O          3.97419691   -1.78035402   -0.17386299
 C          2.65196490   -0.05016500    0.91910601
 O          3.59787607    0.15609600    1.95902503
 C          2.00219202    1.29306901    0.64511502
 C          1.07735598    1.24369001   -0.56652600
 C          0.56812000    2.60473108   -1.02286196
 O          1.62889397    3.41481209   -1.50730896
 O          1.59225798    0.59139299   -1.67321706
 O          1.22731495    1.74447298    1.74217796
 O          1.39461696   -1.67090797   -1.16465104
 H          0.05616800    0.66920698   -0.17297700
 H          2.77374792   -0.83363199   -2.43720293
 H          1.89338803   -0.77117097    1.24277198
 H          2.79853702    2.01464391    0.41635901
 C          0.79646599   -2.27855396   -2.31637001
 H          3.29269505   -2.46069598   -0.08006800
 H         -0.20005900    2.45839190   -1.78931201
 H          0.13050400    3.12912107   -0.17451000
 H          1.80773497    1.78047001    2.51278210
 H          3.97609496   -0.70051599    2.19237995
 H          1.96241200    3.01601291   -2.32040405
 H          1.56535101   -2.75675201   -2.92974997
 H          0.25847900   -1.53669500   -2.91225696
 H          0.09854800   -3.03002596   -1.94964898
 H          4.08049202    0.17803399   -0.66155702
 C         -3.23549008    0.77947199    1.55071104
 C         -1.94134104    1.32231796    0.89347398
 C         -3.48419595   -0.64046299    1.03087902
 C         -2.37776709   -1.55623102    1.56540704
 C         -1.00370502   -0.90745598    1.25054502
 N         -1.24145198    0.17675100    0.27935699
 H         -4.06750679    1.43869805    1.29788995
 H         -2.16038609    2.03444099    0.09830700
 H         -4.46198082   -0.99838501    1.35653996
 H         -2.47017193   -1.68794894    2.64469695
 H         -0.31139299   -1.61723804    0.80053502
 H         -3.12812209    0.76959801    2.63742590
 H         -1.26944304    1.77971804    1.61631203
 C         -3.40856791   -0.62417603   -0.50027198
 H         -2.44292593   -2.54017496    1.09631896
 H         -0.54627597   -0.46019900    2.13179207
 C         -1.94801700   -0.31015000   -0.91848898
 H         -4.08512115    0.13190500   -0.90407097
 H         -3.69577289   -1.59206903   -0.91418099
 H         -1.89549804    0.46261099   -1.68525302
 H         -1.42856002   -1.19950795   -1.26667404
