48
wb97x-d4 ma-def2-tzvp(-f) cpcm(dmso) E: -1056.428709073722, G: -1056.05208461
 C          2.57867694   -1.01943696   -0.42180201
 C          3.38520098   -0.06732000    0.45445299
 O          4.06125784   -0.83871800    1.42821801
 C          2.46182203    0.97297698    1.06994200
 O          3.16260791    1.86885798    1.92467403
 C          1.75977802    1.73048198   -0.04921600
 C          1.11194897    0.78912598   -1.06141698
 C          0.62537903    1.49848199   -2.31475091
 O         -0.14895999    0.65333498   -3.14766502
 O          1.89743400   -0.28365400   -1.44667804
 O          0.74685299    2.58774209    0.44496199
 O          1.68228495   -1.73932505    0.35611001
 H          0.07236000    0.38297099   -0.53036201
 H          3.24655008   -1.68732202   -0.97132200
 H          1.72556806    0.48038599    1.70736003
 H          2.51956296    2.31253600   -0.59467399
 C          1.36283398   -3.02231789   -0.19384401
 H          4.55998516   -0.23034900    1.98773205
 H         -0.00132800    2.34359503   -2.03284192
 H          1.50694299    1.88202095   -2.84371996
 H          1.15175104    3.16971397    1.10074604
 H          3.83019304    2.33803105    1.40512097
 H          0.42709100   -0.03959300   -3.49318504
 H          0.93103302   -2.92425108   -1.19368994
 H          0.63480097   -3.47946000    0.47536299
 H          2.26090193   -3.64505506   -0.23981699
 H          4.10600519    0.44147399   -0.19987400
 C         -3.17257810   -1.42472899   -0.33327800
 C         -1.68389797   -1.18227506   -0.69629198
 C         -3.55884504   -0.47248900    0.80363101
 C         -3.51484895    0.96285999    0.26952299
 C         -2.13912797    1.19785404   -0.40745401
 N         -1.26402199    0.06834700   -0.03809400
 H         -3.30017805   -2.46528602   -0.03001800
 H         -1.04663396   -1.97798896   -0.32036200
 H         -4.55873394   -0.70826399    1.17132998
 H         -4.30681086    1.12769997   -0.46298000
 H         -1.66515005    2.11555696   -0.06630000
 H         -3.80498195   -1.24566197   -1.20541298
 H         -1.52960002   -1.06797397   -1.76734602
 C         -2.53271198   -0.60830301    1.93324804
 H         -3.65515089    1.67372096    1.08659697
 H         -2.21537900    1.20773196   -1.49379599
 C         -1.16199803   -0.09025200    1.42410505
 H         -2.44669890   -1.65257800    2.24090600
 H         -2.83578396   -0.02266500    2.80292702
 H         -0.35735199   -0.79410303    1.63031805
 H         -0.90804499    0.88387102    1.83892202
