48
wb97x-d4 ma-def2-tzvp(-f) cpcm(dmso) E: -1056.428867307817, G: -1056.0519680700002
 C          2.27054691   -0.71760100   -1.47205997
 C          3.29051709   -0.60204399   -0.34098500
 O          3.90010309   -1.85533500   -0.09207500
 C          2.63013411   -0.03314800    0.90580601
 O          3.57121992    0.19496299    1.94532895
 C          2.02070189    1.31321704    0.56213200
 C          1.09435999    1.22251105   -0.64611501
 C          0.56032997    2.56136203   -1.14204395
 O          1.60111403    3.39883304   -1.62727106
 O          1.61235905    0.52568501   -1.72262704
 O          1.26195800    1.84599996    1.63311303
 O          1.35239899   -1.71086395   -1.13355899
 H          0.07663500    0.65846199   -0.22962099
 H          2.77041411   -0.95458800   -2.41427994
 H          1.84890497   -0.71642798    1.25574696
 H          2.84322596    1.99356794    0.29939300
 C          0.78414899   -2.37327790   -2.27004099
 H          3.19201589   -2.50561404    0.01711700
 H         -0.12052200    2.37035990   -1.97413301
 H          0.00896600    3.05034494   -0.33782399
 H          1.83913898    1.88465500    2.40615106
 H          3.92057490   -0.66014397    2.22457409
 H          1.94116497    3.92488289   -0.89445001
 H          0.27135500   -1.65949404   -2.92012906
 H          0.06854700   -3.09940696   -1.88649702
 H          1.56689203   -2.88918710   -2.83317304
 H          4.08601189    0.07504600   -0.66170001
 C         -3.22472095    0.79480898    1.49202704
 C         -1.93280399    1.32872105    0.82266200
 C         -3.46692705   -0.63742799    1.00403500
 C         -2.35746098   -1.53515899    1.56150997
 C         -0.98614001   -0.88637203    1.23473895
 N         -1.22586000    0.17283300    0.23704000
 H         -4.05925179    1.44485402    1.22411501
 H         -2.15688491    2.01969194    0.01069900
 H         -4.44386482   -0.99194002    1.33589602
 H         -2.45140791   -1.64287901    2.64334106
 H         -0.28922701   -1.60358703    0.80484301
 H         -3.11782598    0.80980098    2.57871199
 H         -1.26440001    1.80845594    1.53449702
 C         -3.38804412   -0.65624201   -0.52691001
 H         -2.41610408   -2.52977490    1.11457300
 H         -0.53471500   -0.41570699    2.10712004
 C         -1.92810595   -0.34498700   -0.95015103
 H         -4.06772709    0.08649200   -0.94979697
 H         -3.66952801   -1.63514102   -0.91831100
 H         -1.87824404    0.41013399   -1.73445797
 H         -1.40396702   -1.23933303   -1.27696097
