48
wb97x-d4 ma-def2-tzvp(-f) cpcm(dmso) E: -1056.426259927381, G: -1056.05143273
 C          2.37997103   -0.98641998   -0.96156102
 C          3.35067201   -0.36238000    0.03874900
 O          4.05340385   -1.35486305    0.76574200
 C          2.58296704    0.49996099    1.02377999
 O          3.45460010    1.16090703    1.93043303
 C          1.84588599    1.58036804    0.25318301
 C          1.03653097    1.01765203   -0.91406101
 C          0.49284700    2.07868695   -1.85223103
 O          1.59565699    2.73830605   -2.46806598
 O          1.66883099    0.04273200   -1.66368401
 O          0.93990302    2.29975891    1.07363701
 O          1.50016904   -1.83756602   -0.30388501
 H          0.01691400    0.55166900   -0.40090099
 H          2.92583704   -1.51658297   -1.74610102
 H          1.86914897   -0.11986100    1.57632804
 H          2.59568501    2.25955510   -0.17247200
 C          1.08410096   -2.95431399   -1.09633696
 H          4.83657598   -1.61130404    0.26560700
 H         -0.14122100    1.59304798   -2.60200810
 H         -0.10996900    2.78421497   -1.27661502
 H          1.45228696    2.73503399    1.76595199
 H          3.93525600    0.48190400    2.42011499
 H          1.26777506    3.55219197   -2.86677289
 H          0.36542201   -3.51412702   -0.49848700
 H          1.94274700   -3.59106708   -1.32760799
 H          0.61005902   -2.62292910   -2.02467299
 H          4.04678488    0.27165899   -0.52080101
 C         -2.41010594   -1.14121306    1.85932004
 C         -1.07183802   -0.48446599    1.43016803
 C         -3.52690506   -0.60280102    0.95892698
 C         -3.30067492   -1.11624396   -0.46717101
 C         -1.83090699   -0.82386303   -0.86605901
 N         -1.29251802    0.13830701    0.11186300
 H         -2.60456300   -0.90131903    2.90596700
 H         -0.76046300    0.30403101    2.11363697
 H         -4.50111723   -0.92670101    1.32819998
 H         -3.47729492   -2.19129491   -0.52898902
 H         -1.75253403   -0.38395801   -1.86006105
 H         -2.34110808   -2.22726607    1.76746202
 H         -0.27238101   -1.21604097    1.32871401
 C         -3.44573402    0.92705202    0.94064897
 H         -3.98381996   -0.61885899   -1.15891302
 H         -1.21642601   -1.71833897   -0.81564897
 C         -2.14117408    1.34166896    0.21077800
 H         -3.44531703    1.31844795    1.96011496
 H         -4.29930592    1.35560000    0.41281500
 H         -1.58708298    2.10356402    0.75470001
 H         -2.33757496    1.68745899   -0.80373597
