48
wb97x-d4 ma-def2-tzvp(-f) cpcm(dmso) E: -1056.427978136383, G: -1056.05127921
 C          2.46179700   -1.00519800   -0.95785201
 C          3.42416096   -0.42260599    0.07633000
 O          4.11384821   -1.47202599    0.72695899
 C          2.67233205    0.48212200    1.03827202
 O          3.60562801    1.05876005    1.93951702
 C          1.96006501    1.57030702    0.25000399
 C          1.13383496    1.01185799   -0.91502702
 C          0.68219900    2.06574988   -1.91545296
 O          0.07473900    3.14523411   -1.21486604
 O          1.74237597    0.01350700   -1.65428996
 O          1.14986598    2.28769588    1.16280603
 O          1.59478199   -1.88193595   -0.30819401
 H          0.10085400    0.58480799   -0.39228299
 H          3.02099299   -1.52194202   -1.74107802
 H          1.93200898   -0.10605700    1.59348202
 H          2.72510409    2.22812390   -0.18772800
 C          1.16008699   -2.97374701   -1.12811995
 H          3.44962096   -2.07547092    1.08734703
 H          1.57356405    2.40303707   -2.45600510
 H         -0.01320400    1.61640298   -2.63205695
 H          0.75250101    3.02189589    0.67129099
 H          3.11273909    1.63940895    2.53286505
 H          0.02207600    3.90290594   -1.80811095
 H          0.43113399   -3.53447294   -0.54403400
 H          2.00881600   -3.61695695   -1.37606001
 H          0.69257802   -2.60925102   -2.04675603
 H          4.17848015    0.16723500   -0.45064101
 C         -2.31499290   -1.28916502    1.73197305
 C         -0.98181897   -0.59095401    1.35776401
 C         -3.43690395   -0.68389899    0.88251400
 C         -3.20889211   -1.07298899   -0.58178502
 C         -1.74509799   -0.72789901   -0.95859402
 N         -1.20734799    0.14503700    0.09967600
 H         -2.50878692   -1.14006996    2.79551101
 H         -0.67474300    0.13711700    2.10748291
 H         -4.40840483   -1.04489303    1.22344995
 H         -3.37249088   -2.14122200   -0.73271501
 H         -1.67983103   -0.19670500   -1.90780795
 H         -2.24002290   -2.36303806    1.54773200
 H         -0.17841500   -1.30572999    1.19368505
 C         -3.36621809    0.84214002    0.99404299
 H         -3.90068007   -0.52807099   -1.22765100
 H         -1.11968803   -1.61595702   -0.99938297
 C         -2.06128907    1.33048904    0.31111601
 H         -3.37390304    1.14415598    2.04360795
 H         -4.22138882    1.30800998    0.50150502
 H         -1.51411498    2.03638697    0.93097103
 H         -2.24793792    1.77786899   -0.66341102
