48
wb97x-d4 ma-def2-tzvp(-f) cpcm(dmso) E: -1056.425929079131, G: -1056.04905241
 C          2.50167489   -1.12175500   -0.34482601
 C          3.40240788   -0.15084800    0.40526900
 O          4.12632895   -0.88018602    1.37642503
 C          2.57036209    0.95904201    1.03045797
 O          3.39368892    1.82832098    1.79786503
 C          1.82113397    1.69633806   -0.06800400
 C          1.12931001    0.73232198   -1.05128896
 C          0.73657900    1.38586700   -2.36840892
 O          0.08487500    2.62319708   -2.10399008
 O          1.81192195   -0.42296901   -1.38722396
 O          0.87488401    2.56196404    0.52788597
 O          1.60503197   -1.72327900    0.52928799
 H          0.07296100    0.44246900   -0.49092099
 H          3.09998798   -1.86856198   -0.87155598
 H          1.85924304    0.52866501    1.73858500
 H          2.55300212    2.27179599   -0.65582597
 C          1.30985105   -3.08638692    0.20462200
 H          4.55939722   -0.23384701    1.94956505
 H          1.65889704    1.54565096   -2.93713808
 H          0.08809500    0.70997000   -2.93536091
 H          0.46603301    3.06248689   -0.19410700
 H          3.98208308    2.30749989    1.19896603
 H          0.12774301    3.16727710   -2.89822197
 H          2.19309807   -3.71098399    0.36441201
 H          0.97699398   -3.18170404   -0.83292699
 H          0.51039100   -3.40333891    0.87390101
 H          4.08846378    0.29164600   -0.33043301
 C         -2.93191910   -1.69915402   -0.23062199
 C         -1.62376595   -1.11240494   -0.82037199
 C         -3.54895997   -0.65507901    0.70643997
 C         -3.62953401    0.68498498   -0.03303300
 C         -2.18854189    1.19713104   -0.29457301
 N         -1.27003598    0.07498100   -0.02435700
 H         -2.71656990   -2.61883211    0.31751099
 H         -0.79953402   -1.81882799   -0.76780802
 H         -4.54347181   -0.97233200    1.02392995
 H         -4.15996504    0.56224698   -0.97973698
 H         -1.91227996    2.01255488    0.37167400
 H         -3.61386800   -1.94279099   -1.04700994
 H         -1.74947906   -0.78696001   -1.85294199
 C         -2.63150001   -0.48751500    1.92185199
 H         -4.16789484    1.42428803    0.56232297
 H         -2.04685402    1.51433897   -1.32541895
 C         -1.18769205   -0.21956600    1.41831994
 H         -2.63351607   -1.38908505    2.53664088
 H         -2.97277308    0.34600401    2.53940296
 H         -0.54149002   -1.08502495    1.54154599
 H         -0.73480397    0.64039099    1.90922499
