48
wb97x-d4 ma-def2-tzvp(-f) cpcm(dmso) E: -1056.429241806007, G: -1056.0534392000002
 C          2.57909799   -0.95313001   -0.44281000
 C          3.38710499    0.03075900    0.40356600
 O          4.07164001   -0.62967700    1.45442104
 C          2.45839000    1.06575203    1.01174998
 O          3.17641091    2.05351901    1.73717296
 C          1.72569704    1.78935504   -0.10506900
 C          1.08188605    0.82339001   -1.09590197
 C          0.57374299    1.50968397   -2.35374808
 O         -0.20022701    0.64409798   -3.16600204
 O          1.87452197   -0.24632800   -1.47444797
 O          0.69814903    2.63013411    0.39089900
 O          1.70124698   -1.66602194    0.36280701
 H          0.05497100    0.41200000   -0.54940099
 H          3.24537992   -1.62554598   -0.98952103
 H          1.73653996    0.56928802    1.66871095
 H          2.46664596    2.38149405   -0.66205901
 C          1.40893602   -2.97429991   -0.13959600
 H          4.92973185   -0.92480999    1.12957501
 H         -0.05961500    2.35141301   -2.07687402
 H          1.44500005    1.89518499   -2.89812994
 H          1.10789800    3.27966189    0.97573102
 H          3.63337398    1.60912001    2.46206689
 H          0.37907299   -0.04973700   -3.50422096
 H          2.32023692   -3.57874990   -0.16531201
 H          0.97351098   -2.92207003   -1.14139295
 H          0.69216299   -3.42312407    0.54730499
 H          4.09624720    0.53737599   -0.25960299
 C         -3.14532709   -1.46703303   -0.26866901
 C         -1.66871297   -1.19424498   -0.65940303
 C         -3.54298711   -0.49396700    0.84651399
 C         -3.54059792    0.92703199    0.27362901
 C         -2.17605710    1.18039596   -0.41970801
 N         -1.27190697    0.08007300   -0.03421500
 H         -3.24012399   -2.50151110    0.06587500
 H         -1.00537002   -1.96511602   -0.27737999
 H         -4.53292322   -0.74424201    1.23123395
 H         -4.34162998    1.05021799   -0.45723000
 H         -1.72108305    2.11585498   -0.10145200
 H         -3.79375696   -1.32978404   -1.13652802
 H         -1.53327096   -1.09854102   -1.73493600
 C         -2.50246191   -0.57459199    1.96824503
 H         -3.69464493    1.65608501    1.07191598
 H         -2.26093698    1.16602397   -1.50537801
 C         -1.14895594   -0.04124100    1.42967498
 H         -2.39005208   -1.60747194    2.30444098
 H         -2.80988789    0.02882500    2.82413411
 H         -0.32723901   -0.72315198    1.64186394
 H         -0.90982503    0.94765300    1.81745505
