48
wb97x-d4 ma-def2-tzvp(-f) cpcm(dmso) E: -1056.425454388951, G: -1056.04852798
 C          2.26563191   -0.75126898   -1.46145594
 C          3.29586911   -0.68475902   -0.33980700
 O          3.86569691   -1.97047901   -0.19329900
 C          2.64670110   -0.18326700    0.94122499
 O          3.57713699   -0.13100100    2.01547003
 C          2.05125093    1.19060194    0.67175901
 C          1.14583194    1.20472896   -0.55988902
 C          0.77145803    2.60229492   -1.04995203
 O          0.05751100    3.37512398   -0.10620400
 O          1.65189898    0.53071302   -1.65569496
 O          1.28361595    1.66869998    1.76641595
 O          1.31169295   -1.71750796   -1.17715597
 H          0.07480200    0.69384402   -0.18588500
 H          2.75848103   -0.95540398   -2.41530108
 H          1.86846006   -0.87731600    1.26345503
 H          2.87946391    1.88478005    0.46104401
 C          0.71871400   -2.29298306   -2.34681010
 H          4.50669718   -1.92261803    0.52723402
 H          1.70753098    3.09521604   -1.34618700
 H          0.14278300    2.50299501   -1.93706596
 H          1.86633503    1.72921896    2.53447008
 H          4.28748178    0.48385501    1.78425896
 H          0.48166499    3.26888895    0.75727701
 H          0.28110200   -1.52134299   -2.98597789
 H         -0.06359800   -2.96851993   -2.00265408
 H          1.46949303   -2.85484409   -2.90971804
 H          4.06145382    0.03953800   -0.64997900
 C         -3.25429010    0.61087000    1.53134298
 C         -1.94401002    1.24459195    0.99732399
 C         -3.51410890   -0.69136101    0.76867199
 C         -2.43064904   -1.70361900    1.15453994
 C         -1.04615998   -1.02301598    1.00591302
 N         -1.24026704    0.20794100    0.21415199
 H         -4.07375002    1.31713903    1.38643897
 H         -2.13402796    2.08214998    0.33055800
 H         -4.50334692   -1.08341205    1.00989902
 H         -2.55553508   -2.03233099    2.18774009
 H         -0.33282799   -1.65563095    0.48305100
 H         -3.16558909    0.40912601    2.60114694
 H         -1.28458798    1.56944501    1.79869497
 C         -3.40638208   -0.40623000   -0.73325902
 H         -2.48818302   -2.58360696    0.51020098
 H         -0.63090903   -0.72406900    1.96791005
 C         -1.93124104   -0.06144000   -1.05991304
 H         -4.05699205    0.42708799   -1.00660396
 H         -3.70627809   -1.27695298   -1.31879306
 H         -1.84608305    0.82558399   -1.68755996
 H         -1.41994905   -0.89145601   -1.54102802
