48
wb97x-d4 ma-def2-tzvp(-f) cpcm(dmso) E: -1056.424140161896, G: -1056.04813377
 C          2.58887506   -0.99813098   -0.76018798
 C          3.50844908   -0.21498699    0.17035300
 O          4.29088497   -1.09222901    0.95976001
 C          2.68039894    0.73239702    1.02101004
 O          3.49867392    1.54614699    1.85200298
 C          1.91163194    1.68290806    0.11971300
 C          1.10175896    0.93344599   -0.94124103
 C          0.59017599    1.76866102   -2.10771298
 O         -0.34533000    2.73727202   -1.66850805
 O          1.76510894   -0.12770700   -1.53820097
 O          1.03897405    2.49994707    0.87736499
 O          1.83079898   -1.87084401    0.01370300
 H          0.08229400    0.53449899   -0.35944301
 H          3.16813588   -1.54720604   -1.50735605
 H          1.97392297    0.16023600    1.63405395
 H          2.64376092    2.30233312   -0.42026800
 C          1.32471502   -2.99222302   -0.71894002
 H          3.69131398   -1.74529505    1.34737396
 H          1.46291494    2.24091101   -2.57651901
 H          0.14045300    1.08438897   -2.83416510
 H          1.56327903    2.86729598    1.60086298
 H          3.94501209    0.97070599    2.48496294
 H         -0.70414901    3.17005706   -2.45165801
 H          0.61632198   -2.66686392   -1.48585999
 H          0.81666601   -3.63462400   -0.00080700
 H          2.14839506   -3.54088998   -1.18497705
 H          4.20532894    0.36577201   -0.43867701
 C         -2.51461911   -1.34333396    1.56146705
 C         -1.11097705   -1.02898097    0.98160201
 C         -3.56114602   -0.59544098    0.72974801
 C         -3.30439901   -0.88213199   -0.75399500
 C         -1.96194696   -0.21912099   -1.15415204
 N         -1.25088096    0.13506500    0.08784800
 H         -2.57022500   -1.02959502    2.60614896
 H         -0.38777801   -0.78090501    1.75675297
 H         -4.56688881   -0.91297901    1.00916195
 H         -3.25986695   -1.95927298   -0.92881298
 H         -2.11215305    0.70152402   -1.71577203
 H         -2.68030095   -2.42138100    1.52173102
 H         -0.73176903   -1.85399699    0.38655600
 C         -3.38576293    0.90652698    0.97603899
 H         -4.10282898   -0.47107601   -1.37401402
 H         -1.32625699   -0.89396501   -1.72814298
 C         -1.89161503    1.27151000    0.78040701
 H         -3.68589997    1.17007804    1.99178898
 H         -4.00587511    1.47778404    0.28148499
 H         -1.37312806    1.40463603    1.72774005
 H         -1.75445402    2.15907788    0.16977200
