48
wb97x-d4 ma-def2-tzvp(-f) cpcm(dmso) E: -1056.424007529522, G: -1056.04787297
 C          2.60366011   -1.02691698   -0.54443997
 C          3.51277089   -0.09010800    0.24108300
 O          4.34383678   -0.82202101    1.12433398
 C          2.65693688    0.92699802    0.97533399
 O          3.44701004    1.87153196    1.68596399
 C          1.83433402    1.72641301   -0.02073500
 C          1.09355700    0.83854198   -1.02642500
 C          0.66404498    1.51805103   -2.32091689
 O         -0.23590501    2.58042598   -2.06023788
 O          1.76537895   -0.30094200   -1.44345105
 O          0.87872303    2.52753711    0.65237403
 O          1.86475301   -1.77583003    0.36660501
 H          0.04731000    0.53455198   -0.45819300
 H          3.18813992   -1.67903602   -1.19889295
 H          1.98337805    0.40692300    1.66597903
 H          2.52628899    2.35847497   -0.59656799
 C          1.40220404   -3.02506495   -0.15704900
 H          3.77416396   -1.42086196    1.62727106
 H          1.57608497    1.88010204   -2.81261611
 H          0.20701601    0.75825101   -2.96310306
 H          1.36203802    3.05242205    1.30347300
 H          3.91579604    1.39942801    2.38492393
 H         -0.51642001    2.93891096   -2.90993500
 H          2.25168610   -3.64575505   -0.45648399
 H          0.74028301   -2.86775398   -1.01239502
 H          0.85252398   -3.51795101    0.64374101
 H          4.17461205    0.42609400   -0.45846099
 C         -3.13993192   -1.31777799   -0.61209601
 C         -1.84587598   -0.63114101   -1.11634004
 C         -3.56199908   -0.64443803    0.69903600
 C         -3.55987597    0.87452400    0.49352199
 C         -2.09517908    1.34434605    0.29263601
 N         -1.28955805    0.14073400    0.00811000
 H         -2.96130991   -2.38280392   -0.44879600
 H         -1.09719002   -1.35252905   -1.44224501
 H         -4.55327320   -0.98734999    0.99934500
 H         -4.16210890    1.13786101   -0.37896699
 H         -1.68241203    1.80402899    1.18811095
 H         -3.91627693   -1.21664906   -1.37238395
 H         -2.04572511    0.07012300   -1.92607498
 C         -2.52933192   -0.98704702    1.77775395
 H         -3.98068404    1.38495803    1.36156094
 H         -1.98665297    2.03018308   -0.54327101
 C         -1.11573601   -0.68488503    1.21635497
 H         -2.58408308   -2.04236698    2.05047393
 H         -2.71226811   -0.39401200    2.67633104
 H         -0.59353697   -1.59104097    0.92409903
 H         -0.50120097   -0.12713701    1.92166197
