48
wb97x-d4 ma-def2-tzvp(-f) cpcm(dmso) E: -1056.423211236708, G: -1056.0456364000001
 C          2.58900189   -1.08241200   -0.65426600
 C          3.61565495    0.04005500   -0.54717100
 O          4.87544489   -0.46025300   -0.13934501
 C          3.11829901    1.18823898    0.34856299
 O          3.49660993    2.45986700   -0.18420000
 C          1.58650696    1.20299101    0.50258601
 C          0.89542103    0.65009201   -0.74154800
 C          0.70405102    1.63093400   -1.89469004
 O          1.92728603    2.00605798   -2.50539804
 O          1.36916900   -0.58196002   -1.19536495
 O          1.17185795    0.52573502    1.67822695
 O          2.42835093   -1.66022301    0.61193901
 H         -0.24665000    0.45194799   -0.37335101
 H          2.91745400   -1.83922601   -1.37026703
 H          3.54017496    1.06671596    1.35059500
 H          1.27098894    2.24033093    0.62471700
 C          1.87624502   -2.98410606    0.58350903
 H          4.75994396   -0.90506899    0.71105498
 H          0.10396000    1.14942396   -2.66872096
 H          0.15658900    2.50221205   -1.51691496
 H          1.50865996   -0.38447201    1.62139404
 H          4.45530796    2.47253799   -0.30246001
 H          2.48419094    2.45101190   -1.84415400
 H          1.79525006   -3.31070995    1.61890996
 H          2.54481697   -3.65103507    0.03278800
 H          0.88834602   -2.98222208    0.11963600
 H          3.75283504    0.43064901   -1.55646896
 C         -3.04793191   -1.59304202    0.93989801
 C         -1.58326805   -1.17781997    0.63232303
 C         -3.96047211   -0.38820401    0.69103700
 C         -3.91273689   -0.03166800   -0.79813802
 C         -2.43015790    0.17931201   -1.21254897
 N         -1.62425804    0.15869300    0.01970800
 H         -3.11658001   -1.92098403    1.97839105
 H         -0.97511297   -1.10869002    1.53204095
 H         -4.98379183   -0.62658602    0.98565698
 H         -4.34444618   -0.83258498   -1.40041697
 H         -2.27886200    1.14085495   -1.70117497
 H         -3.34091592   -2.42717099    0.29945099
 H         -1.10808897   -1.85424304   -0.07688900
 C         -3.44411111    0.80370700    1.50397301
 H         -4.48217821    0.88046002   -0.98633403
 H         -2.06506896   -0.61847103   -1.85904002
 C         -2.03934312    1.20111203    0.97277200
 H         -3.37926602    0.53896397    2.56113696
 H         -4.11923409    1.65558696    1.40760505
 H         -1.29501700    1.24462795    1.76523995
 H         -2.05491900    2.14903212    0.43570799
