48
wb97x-d4 ma-def2-tzvp(-f) cpcm(dmso) E: -1056.422914964457, G: -1056.0445901100002
 C          2.33794308   -0.72494501   -1.20741498
 C          3.00312304   -0.97126299    0.15049399
 O          2.11836100   -1.59197402    1.07318795
 C          3.41572404    0.34912699    0.77749401
 O          4.31234217    0.97575098   -0.12554801
 C          2.17055011    1.20839000    1.03527403
 C          1.20298898    1.17141902   -0.16821100
 C          0.74720901    2.56545711   -0.56922799
 O         -0.20471001    2.56455112   -1.61660600
 O          1.65641999    0.53135002   -1.30504799
 O          1.52074206    0.86311799    2.24712801
 O          1.46445799   -1.77938902   -1.44714701
 H          0.18150800    0.60604900    0.20884500
 H          3.09906697   -0.66761500   -1.98955297
 H          3.89583492    0.15335500    1.74158001
 H          2.49972105    2.24470711    1.15804005
 C          1.06186497   -1.89738905   -2.81558800
 H          1.69737196   -2.33441091    0.61993903
 H          0.28961000    3.05308008    0.29351199
 H          1.64246702    3.13648701   -0.84843898
 H          1.44672799   -0.10240800    2.25845194
 H          4.72244883    1.72373402    0.32447699
 H          0.22070900    2.20744896   -2.40593910
 H          0.49753699   -1.01656604   -3.13082910
 H          0.42712301   -2.77999806   -2.87873507
 H          1.93886006   -2.02439189   -3.45754790
 H          3.88107395   -1.60079098   -0.02118400
 C         -3.42789888    0.80243200    1.18314302
 C         -2.00746799    1.30257499    0.81150800
 C         -3.57456112   -0.64638001    0.70645797
 C         -2.62951589   -1.52766502    1.52923203
 C         -1.21165299   -0.89782500    1.49167502
 N         -1.20800102    0.12376200    0.42996001
 H         -4.16803312    1.44611597    0.70466602
 H         -2.02298808    1.97633004   -0.04251900
 H         -4.60581112   -0.98210901    0.82694000
 H         -2.96224189   -1.59353900    2.56649804
 H         -0.44775799   -1.63493800    1.25776601
 H         -3.57630110    0.86026597    2.26355004
 H         -1.51177895    1.78963602    1.65082800
 C         -3.15720606   -0.72624898   -0.76592398
 H         -2.60115600   -2.53841996    1.11689997
 H         -0.96253300   -0.39989901    2.42755198
 C         -1.63653898   -0.43848801   -0.86277801
 H         -3.71570802    0.00295300   -1.35671794
 H         -3.35906196   -1.71830106   -1.17337000
 H         -1.40169096    0.28332499   -1.64219999
 H         -1.05917001   -1.34646595   -1.02457404
