48
wb97x-d4 ma-def2-tzvp(-f) cpcm(dmso) E: -1056.429893064261, G: -1056.05303099
 C          2.37094808   -0.64059198   -1.38431299
 C          3.36302209   -0.63215297   -0.21997800
 O          3.96793008   -1.90264201   -0.09104100
 C          2.66398406   -0.16706000    1.05238700
 O          3.53106809   -0.11337500    2.17562103
 C          2.04679108    1.20464599    0.80374902
 C          1.17312706    1.22794604   -0.44395399
 C          0.71112901    2.62107301   -0.83618701
 O         -0.25036401    2.59576011   -1.87630498
 O          1.74269295    0.63084102   -1.55511701
 O          1.24809396    1.62537205    1.89456999
 O          1.43102705   -1.64145505   -1.14862800
 H          0.12571800    0.64351600   -0.14199901
 H          2.89648700   -0.81159300   -2.32700109
 H          1.88063300   -0.87799901    1.32463706
 H          2.86773300    1.91920698    0.63270301
 C          0.87768400   -2.19702911   -2.34798098
 H          3.25951290   -2.55529094   -0.00475300
 H          0.25219300    3.10813999    0.02300700
 H          1.59870696    3.19738698   -1.12664497
 H          1.78581202    1.54023802    2.69270706
 H          4.30327606    0.42192000    1.94742203
 H          0.17703500    2.25825000   -2.67304993
 H          0.38429099   -1.42452502   -2.94364691
 H          0.14807700   -2.94520307   -2.04114008
 H          1.66571999   -2.67193508   -2.93917394
 H          4.16514683    0.07102800   -0.46375999
 C         -3.24489689    0.84109199    1.40293503
 C         -1.90461600    1.34873104    0.81253397
 C         -3.49819803   -0.57878602    0.88479400
 C         -2.43855309   -1.51252604    1.47910595
 C         -1.03721297   -0.89976901    1.21870100
 N         -1.20453095    0.18542901    0.23402999
 H         -4.04734898    1.51538098    1.09909499
 H         -2.05999589    2.06620193    0.00831400
 H         -4.49771786   -0.91291600    1.16731203
 H         -2.58264089   -1.62911606    2.55451894
 H         -0.34470499   -1.62922204    0.80142999
 H         -3.19747901    0.84061998    2.49396300
 H         -1.26028800    1.78604698    1.57227099
 C         -3.34954596   -0.58054698   -0.64040899
 H         -2.50643706   -2.50021911    1.01830399
 H         -0.60557002   -0.45971200    2.11629105
 C         -1.86712098   -0.28951100   -0.99412698
 H         -3.99636889    0.17953700   -1.08377194
 H         -3.63131905   -1.54922295   -1.05644798
 H         -1.76437700    0.48260200   -1.75399494
 H         -1.34854996   -1.18856800   -1.31698096
