48
wb97x-d4 ma-def2-tzvp(-f) cpcm(dmso) E: -1056.428910475438, G: -1056.05301261
 C          2.32602406   -0.63328302   -1.44687700
 C          3.32815289   -0.59965700   -0.29779699
 O          3.90214491   -1.89004695   -0.17373601
 C          2.63831806   -0.15269101    0.98314703
 O          3.56089592   -0.02191500    2.05891705
 C          2.03225398    1.22201395    0.75487500
 C          1.14884698    1.24435198   -0.48696101
 C          0.67412502    2.63440609   -0.87365401
 O         -0.30141300    2.60031891   -1.90077305
 O          1.70936704    0.65140897   -1.60505497
 O          1.24323595    1.64282405    1.85297000
 O          1.37321103   -1.61825800   -1.21981096
 H          0.10825400    0.65461999   -0.17481500
 H          2.84372807   -0.79948699   -2.39497709
 H          1.85499299   -0.86715698    1.24988604
 H          2.85632491    1.93069100    0.58215600
 C          0.80084801   -2.13357401   -2.42711091
 H          4.77724791   -1.78990400    0.21790700
 H          0.22331101    3.12014699   -0.00945000
 H          1.55374801    3.21610498   -1.17726803
 H          1.79305196    1.57017505    2.64384198
 H          3.66313505   -0.88205302    2.48195410
 H          0.11565400    2.25531197   -2.69979405
 H          0.06748300   -2.88360310   -2.13379002
 H          1.57688606   -2.60021305   -3.04086089
 H          0.30805600   -1.34138703   -2.99743700
 H          4.09664202    0.13620000   -0.55858898
 C         -3.22350788    0.82654601    1.46302795
 C         -1.90427995    1.34386003    0.83476800
 C         -3.48007894   -0.59601003    0.95427603
 C         -2.39657497   -1.52024102    1.51911795
 C         -1.00819802   -0.89855999    1.21442294
 N         -1.21240103    0.18602100    0.23612900
 H         -4.03963518    1.49366999    1.18057704
 H         -2.08782911    2.06020188    0.03533600
 H         -4.46835279   -0.93774998    1.26579702
 H         -2.50745797   -1.63408506    2.59877396
 H         -0.32559100   -1.62371600    0.77422303
 H         -3.14573002    0.82826102    2.55233407
 H         -1.24202502    1.78603005    1.57576394
 C         -3.37574005   -0.59855902   -0.57455701
 H         -2.47101688   -2.51013589    1.06407797
 H         -0.55041897   -0.45642000    2.09788799
 C         -1.90727198   -0.29273701   -0.97238499
 H         -4.04338884    0.15378600   -0.99982899
 H         -3.65921998   -1.57098806   -0.98064899
 H         -1.83480704    0.48185301   -1.73326194
 H         -1.39099503   -1.18637097   -1.31272697
