48
wb97x-d4 ma-def2-tzvp(-f) cpcm(dmso) E: -1056.427582530752, G: -1056.05259083
 C          2.48050904   -0.94998300   -0.89167202
 C          3.39834905   -0.36908001    0.18316700
 O          4.04347420   -1.39305604    0.91975600
 C          2.58527589    0.47580299    1.14604294
 O          3.40780997    1.12072897    2.10892797
 C          1.88329995    1.57779098    0.37070301
 C          1.12844300    1.04435396   -0.84606898
 C          0.63766599    2.15131998   -1.75560606
 O         -0.24173000    1.59665000   -2.72440100
 O          1.81833303    0.10912800   -1.59701300
 O          0.95214403    2.27720809    1.17824996
 O          1.56184697   -1.81775999   -0.31483299
 H          0.09123500    0.54422098   -0.40219700
 H          3.06748796   -1.45650494   -1.66227400
 H          1.84443998   -0.15367299    1.64962900
 H          2.65544391    2.26639390   -0.00299700
 C          1.15268099   -2.87529492   -1.18761599
 H          4.84653521   -1.65240204    0.45402500
 H          0.13589700    2.90942597   -1.14907706
 H          1.51536500    2.60672498   -2.23129511
 H          1.43227005    2.62727308    1.93924403
 H          3.80944991    0.43724900    2.65936303
 H         -0.56824100    2.31725001   -3.27533793
 H          0.70155603   -2.47847104   -2.10145593
 H          0.41677400   -3.46599698   -0.64297003
 H          2.01048493   -3.50421095   -1.44292295
 H          4.13451385    0.27058199   -0.31543300
 C         -2.43498802   -1.09322798    1.78366804
 C         -1.06874704   -0.47659099    1.38488698
 C         -3.51347208   -0.52721900    0.85426599
 C         -3.26391506   -1.04958606   -0.56483299
 C         -1.77802503   -0.79620302   -0.92895699
 N         -1.23846197    0.15272000    0.06208200
 H         -2.64842701   -0.84379500    2.82441306
 H         -0.74970800    0.30181801    2.07616401
 H         -4.50519800   -0.82379901    1.19921994
 H         -3.46781898   -2.11975002   -0.62924802
 H         -1.65879297   -0.35777101   -1.91745400
 H         -2.39532709   -2.18124199    1.69740105
 H         -0.28861901   -1.23125696    1.30094302
 C         -3.39071798    0.99997598    0.83403897
 H         -3.91693997   -0.53635401   -1.27410603
 H         -1.19008398   -1.70746195   -0.85964602
 C         -2.05680203    1.37867701    0.13850600
 H         -3.40818191    1.39442301    1.85229802
 H         -4.21880102    1.44858301    0.28258300
 H         -1.49728203    2.12418008    0.69897199
 H         -2.21100307    1.72821200   -0.88113701
