48
wb97x-d4 ma-def2-tzvp(-f) cpcm(dmso) E: -1056.428371362912, G: -1056.05258778
 C          2.51510811   -0.99701202   -0.45326599
 C          3.34494090    0.01911900    0.33092001
 O          4.05553818   -0.60035402    1.38950706
 C          2.43246508    1.07960606    0.91920298
 O          3.16906905    2.09008288    1.59329295
 C          1.68224394    1.76033294   -0.21161200
 C          1.01122105    0.76080298   -1.14991498
 C          0.47657001    1.38144600   -2.43340993
 O          1.53076601    1.88408399   -3.24163699
 O          1.77922702   -0.33739799   -1.49367595
 O          0.66499799    2.62410808    0.26740301
 O          1.65703595   -1.67392099    0.40377900
 H         -0.00974800    0.39959699   -0.56064701
 H          3.16626501   -1.69315302   -0.98842299
 H          1.72263503    0.61084098    1.60918200
 H          2.41127491    2.32387805   -0.80903399
 C          1.35432303   -3.00377893   -0.03143900
 H          4.90565395   -0.90777200    1.05518198
 H         -0.11180600    0.63217700   -2.97280598
 H         -0.16455001    2.22637796   -2.18575096
 H          1.08926404    3.31808805    0.78663599
 H          3.65222597    1.66665304    2.31391001
 H          2.03586698    1.13322306   -3.57699108
 H          2.26177502   -3.61448693   -0.03151800
 H          0.91464198   -2.99903488   -1.03273797
 H          0.63762897   -3.41280103    0.68000501
 H          4.03770494    0.49695799   -0.36999500
 C         -3.19150710   -1.48410201   -0.21036500
 C         -1.72732902   -1.19721103   -0.63632601
 C         -3.55846190   -0.53699899    0.93715799
 C         -3.58112001    0.89667499    0.39666200
 C         -2.24435496    1.16799605   -0.34155899
 N         -1.32096100    0.06840200   -0.00153600
 H         -3.27274203   -2.52608800    0.10352400
 H         -1.04861701   -1.97103703   -0.28875399
 H         -4.53426409   -0.80149901    1.34741998
 H         -4.40922213    1.03505397   -0.30036300
 H         -1.78277898    2.10315490   -0.03223200
 H         -3.86490607   -1.33033597   -1.05607605
 H         -1.62619102   -1.08632505   -1.71564698
 C         -2.48210311   -0.63613802    2.02336192
 H         -3.70523190    1.60664403    1.21701205
 H         -2.37246895    1.16474998   -1.42362404
 C         -1.15232003   -0.07400300    1.45618904
 H         -2.34847498   -1.67615199    2.32841706
 H         -2.76704693   -0.05825200    2.90423298
 H         -0.31401601   -0.74505597    1.63391900
 H         -0.91821301    0.91286200    1.85242605
