48
wb97x-d4 ma-def2-tzvp(-f) cpcm(dmso) E: -1056.429035893621, G: -1056.05227269
 C          2.54376006   -0.98402399   -0.45411301
 C          3.35154510   -0.00305900    0.39638701
 O          4.06607580   -0.70628101    1.39228594
 C          2.42580199    1.06680095    0.96122003
 O          3.10132408    2.02522206    1.76235402
 C          1.71348202    1.75839400   -0.19420300
 C          1.03801703    0.77320498   -1.14024901
 C          0.50940198    1.40143001   -2.42209911
 O          1.56746697    1.91818094   -3.21613312
 O          1.80955303   -0.32238299   -1.48552299
 O          0.71510899    2.65122509    0.26728901
 O          1.69140899   -1.69024003    0.39296499
 H          0.01454100    0.40650401   -0.55552000
 H          3.21246696   -1.66197801   -0.98939300
 H          1.68954301    0.60413498    1.62289906
 H          2.46729994    2.30005097   -0.78449601
 C          1.40509105   -3.01897597   -0.06056700
 H          3.42665100   -1.23207104    1.89193904
 H         -0.06998100    0.65386099   -2.97337604
 H         -0.13881800    2.24018908   -2.17184401
 H          1.13440204    3.24448299    0.90402198
 H          3.83962488    2.38980198    1.25606799
 H          2.07770395    1.17396903   -3.55847812
 H          0.96467900   -3.00240993   -1.06101894
 H          0.69378000   -3.44570804    0.64554101
 H          2.32054090   -3.61702490   -0.06974500
 H          4.09879589    0.47124499   -0.24700400
 C         -3.15960503   -1.48736501   -0.24382600
 C         -1.69419897   -1.19290197   -0.65948403
 C         -3.53437591   -0.55421501    0.91266000
 C         -3.55580401    0.88604802    0.38991600
 C         -2.21438289    1.16893196   -0.33529601
 N         -1.29223394    0.06484100   -0.00584400
 H         -3.24044204   -2.53298211    0.05776400
 H         -1.01513302   -1.97027802   -0.31975201
 H         -4.51218796   -0.82486999    1.31394994
 H         -4.37914324    1.03160203   -0.31123701
 H         -1.75475299    2.09954309   -0.00916300
 H         -3.82898903   -1.32527399   -1.09114397
 H         -1.58876801   -1.06730294   -1.73671198
 C         -2.46448898   -0.66552597    2.00393009
 H         -3.68709707    1.58546495    1.21814299
 H         -2.33531499    1.18187594   -1.41806901
 C         -1.13135505   -0.09721300    1.45091498
 H         -2.33232903   -1.70887101    2.29793906
 H         -2.75460005   -0.09761200    2.88955402
 H         -0.29558301   -0.77249199    1.62465799
 H         -0.89847797    0.88405597    1.86189401
