48
wb97x-d4 ma-def2-tzvp(-f) cpcm(dmso) E: -1056.432022992676, G: -1056.05555724
 C          1.42415297   -1.59838295    0.14665900
 C          0.78991902   -0.98462701   -1.09340799
 C          1.67518604    0.05904300   -1.74559700
 O          0.93162799    0.62677199   -2.81202197
 C          2.12759900    1.08677399   -0.72019601
 C          2.73121691    0.37396801    0.49483600
 C          3.09362411    1.31595695    1.62822497
 O          1.97893202    2.06403399    2.10307097
 O          1.78682804   -0.56395000    1.03373599
 O          3.09675097    1.91102505   -1.35713601
 O          0.30601099   -1.93782103   -1.95697105
 O          2.50854802   -2.37349796   -0.26426601
 H          3.64091992   -0.15033400    0.18078800
 H          0.69715399   -2.20838594    0.69483697
 H         -0.18125600   -0.38563201   -0.65375298
 H          2.56171799   -0.45698699   -2.13773298
 H          1.26629603    1.68407500   -0.40640900
 C          3.08335710   -3.13371801    0.80144900
 H          0.15396500   -1.51562297   -2.81743908
 H          3.54208899    0.73191297    2.43893003
 H          3.83392692    2.03646111    1.27677703
 H          3.05603409    2.79323196   -0.97197801
 H          1.54380000    1.10639703   -3.38276696
 H          1.36022699    1.44366598    2.50670290
 H          2.31791496   -3.75016689    1.28460896
 H          3.54653597   -2.47821689    1.54346299
 H          3.84284902   -3.77353907    0.35439301
 C         -2.82265902    0.85317999    1.69242704
 C         -1.38368595    0.61883599    1.15996003
 C         -3.80489802    0.70264101    0.52578998
 C         -3.79669595   -0.75699502    0.05801400
 C         -2.32546592   -1.18541896   -0.18901099
 N         -1.50890803    0.03876800   -0.18791699
 H         -2.88413000    1.85329998    2.12446690
 H         -0.82401800    1.54844499    1.06459701
 H         -4.80935192    0.99210399    0.83850998
 H         -4.23626804   -1.41096401    0.81278700
 H         -2.19661093   -1.67960000   -1.15124500
 H         -3.05346894    0.12902200    2.47640395
 H         -0.82096899   -0.07492400    1.78250897
 C         -3.33297801    1.59032297   -0.63084400
 H         -4.37604904   -0.86156899   -0.86155701
 H         -1.94709694   -1.83287394    0.60219002
 C         -1.99066496    1.02659297   -1.16857302
 H         -3.19493294    2.61739302   -0.28665799
 H         -4.06696510    1.59860599   -1.43831098
 H         -1.23047602    1.79918694   -1.27123904
 H         -2.10963106    0.51151001   -2.12110090
