48
wb97x-d4 ma-def2-tzvp(-f) cpcm(dmso) E: -1056.430657480452, G: -1056.05484484
 C          1.51541400   -1.35543799    0.54937798
 C          0.73066097   -1.21832502   -0.75007701
 C          1.46680105   -0.41469401   -1.80290604
 O          0.56705999   -0.23616400   -2.88587904
 C          1.96810997    0.90424198   -1.23197401
 C          2.71707296    0.65251303    0.07841900
 C          3.09832811    1.93615103    0.78875399
 O          3.86791992    1.68031299    1.95810199
 O          1.87351203   -0.06538200    0.99328798
 O          2.82589006    1.47451901   -2.21345711
 O          0.24184801   -2.42516804   -1.18884599
 O          2.61401892   -2.17814803    0.30410600
 H          3.61892700    0.06726100   -0.12931700
 H          0.88889402   -1.77588797    1.34356701
 H         -0.23432501   -0.54543799   -0.42450199
 H          2.33532906   -1.00421405   -2.12520695
 H          1.11433101    1.56332302   -1.04577303
 C          3.33033991   -2.51655793    1.49469399
 H          0.00528000   -2.33913994   -2.12556601
 H          3.71743107    2.54855490    0.13191099
 H          2.18712997    2.49519110    1.03602004
 H          2.75396991    2.43442297   -2.17439103
 H          1.07247901    0.06676600   -3.64988089
 H          3.33756208    1.11689603    2.53504109
 H          3.80792904   -1.63382304    1.92791605
 H          4.09162617   -3.23970008    1.20587599
 H          2.65467405   -2.96522188    2.23052812
 C         -3.35328603   -0.30544400    1.57972598
 C         -1.87093699   -0.63072097    1.25138104
 C         -3.87808204    0.68492198    0.53536302
 C         -3.88489199   -0.00042200   -0.83516598
 C         -2.46484709   -0.56462598   -1.11599195
 N         -1.57345700   -0.04766300   -0.06651400
 H         -3.41264606    0.12218200    2.58178711
 H         -1.18308496   -0.18630899    1.97017205
 H         -4.88716078    1.00671399    0.79777199
 H         -4.60712719   -0.81797498   -0.85333598
 H         -2.07365894   -0.23940900   -2.07893705
 H         -3.94715095   -1.22128606    1.56412303
 H         -1.69219398   -1.70434701    1.19381595
 C         -2.93768096    1.89315605    0.48390299
 H         -4.15918398    0.71405202   -1.61372304
 H         -2.43924904   -1.65254998   -1.06340599
 C         -1.55014896    1.42391598   -0.03201800
 H         -2.83473802    2.33330202    1.47754896
 H         -3.32913208    2.65846109   -0.18823600
 H         -0.73969799    1.73499596    0.62661397
 H         -1.34985399    1.77220201   -1.04470003
