48
wb97x-d4 ma-def2-tzvp(-f) cpcm(dmso) E: -1056.431465375919, G: -1056.05477399
 C          1.41378403   -1.63881695   -0.13253200
 C          0.81656200   -0.73640102   -1.20265806
 C          1.71943998    0.42525801   -1.56777298
 O          0.97397399    1.26057398   -2.44114494
 C          2.19520497    1.15538502   -0.32098201
 C          2.76005006    0.15328000    0.69078100
 C          3.12870193    0.78503400    2.01990509
 O          2.02808309    1.43814898    2.64406896
 O          1.77549505   -0.85203099    0.98064202
 O          3.19592309    2.07645297   -0.73957002
 O          0.34574899   -1.45179999   -2.27777100
 O          2.49367499   -2.31304908   -0.70187998
 H          3.65766597   -0.31215200    0.26923499
 H          0.66891801   -2.34978104    0.24134700
 H         -0.15734901   -0.24318700   -0.65671498
 H          2.59500408    0.01646200   -2.08936405
 H          1.35360003    1.68859899    0.12683100
 C          3.01830912   -3.34215593    0.14019001
 H          0.24108000   -0.84428602   -3.02676702
 H          3.54150105    0.00923700    2.67377806
 H          3.89748311    1.54246604    1.85873103
 H          3.17134094    2.84694695   -0.16166000
 H          1.58385897    1.88202596   -2.85638309
 H          1.35979199    0.76865798    2.83409810
 H          2.22499609   -4.04191113    0.42329299
 H          3.47190309   -2.91889501    1.04022300
 H          3.77761412   -3.86346412   -0.44104600
 C         -2.86287189    1.67054105    1.09786701
 C         -1.44605994    1.39945602    0.52319801
 C         -3.84889197    0.69433802    0.44827899
 C         -3.50012708   -0.72935301    0.89595097
 C         -1.99208999   -0.97804999    0.62189698
 N         -1.51395905    0.12962200   -0.22041000
 H         -3.14316297    2.70338297    0.88506103
 H         -1.13093996    2.17313409   -0.17621900
 H         -4.87060499    0.94110501    0.74085099
 H         -3.69580293   -0.86034501    1.96133697
 H         -1.82427001   -1.91150403    0.08460000
 H         -2.85664392    1.53600800    2.18136811
 H         -0.69880199    1.29220498    1.30844903
 C         -3.69886088    0.78298199   -1.07401705
 H         -4.10293818   -1.45570803    0.34715801
 H         -1.40065706   -0.97392797    1.53711605
 C         -2.29266000    0.25121099   -1.46302998
 H         -3.80981994    1.81775606   -1.40430903
 H         -4.45946312    0.18247700   -1.57540298
 H         -1.76322103    0.93141598   -2.12889600
 H         -2.34050608   -0.73734301   -1.91772294
