48
wb97x-d4 ma-def2-tzvp(-f) cpcm(dmso) E: -1056.429881780994, G: -1056.0543312300001
 C          1.48662496   -1.27504206    0.62270999
 C          0.73911703   -1.27087498   -0.70389497
 C          1.48178303   -0.51531202   -1.78680801
 O          0.62890601   -0.47400701   -2.91984296
 C          1.88988805    0.87217897   -1.30138004
 C          2.57715702    0.78168100    0.06714700
 C          2.80216002    2.15885901    0.66468197
 O          3.57409906    2.11966300    1.86091995
 O          1.75442398    0.05817900    0.99108201
 O          2.71334791    1.51176500   -2.26596808
 O          0.31812501   -2.52616310   -1.06938100
 O          2.63714790   -2.04813695    0.46950099
 H          3.54045200    0.26807600   -0.04894100
 H          0.85232502   -1.67589104    1.42239594
 H         -0.26309600   -0.61629099   -0.45295900
 H          2.39171290   -1.08686996   -2.01864290
 H          0.99449801    1.49423504   -1.21299303
 C          3.33022499   -2.26371789    1.70122004
 H          0.08498400   -2.50549102   -2.01092005
 H          3.27505207    2.79849505   -0.08556500
 H          1.83457005    2.59095001    0.93162298
 H          3.52772903    1.00030005   -2.36767697
 H          1.15645897   -0.23154500   -3.69016099
 H          4.48267317    1.89829600    1.62496197
 H          2.65881896   -2.70951104    2.44268298
 H          3.73450589   -1.32619596    2.09162807
 H          4.14596796   -2.95179391    1.48379004
 C         -3.79532003   -0.87866902    0.64539099
 C         -2.33716798   -1.31466806    0.33333299
 C         -3.87581396    0.64994299    0.58036602
 C         -3.55934000    1.10573995   -0.84766501
 C         -2.18330503    0.51928300   -1.26697397
 N         -1.59400105   -0.11444000   -0.07624100
 H         -4.07324219   -1.23586404    1.63824797
 H         -1.83714604   -1.72971404    1.20844102
 H         -4.87433815    0.98338699    0.86766601
 H         -4.32627296    0.75871402   -1.54204798
 H         -1.49689496    1.28964603   -1.61444902
 H         -4.47847795   -1.32481003   -0.07977300
 H         -2.28890991   -2.03504896   -0.48220399
 C         -2.83069611    1.23986804    1.53211403
 H         -3.52587199    2.19589400   -0.89556003
 H         -2.27751303   -0.24814500   -2.03401399
 C         -1.41558099    0.83790803    1.03292096
 H         -2.98704290    0.86209899    2.54436707
 H         -2.90699410    2.32809806    1.56020796
 H         -0.83114600    0.34661201    1.80872202
 H         -0.85458499    1.68833196    0.64793903
