48
wb97x-d4 ma-def2-tzvp(-f) cpcm(dmso) E: -1056.429955466946, G: -1056.0543241700002
 C          1.54450095   -1.40706396    0.48584899
 C          0.79857898   -1.15255296   -0.82295400
 C          1.56420505   -0.25132000   -1.77743697
 O          0.74611998    0.18813001   -2.85167003
 C          2.07726789    0.98852098   -1.05708504
 C          2.79779601    0.60688603    0.23165900
 C          3.21202898    1.80698299    1.06398702
 O          2.11103010    2.63105106    1.43239903
 O          1.92256200   -0.17647099    1.05518794
 O          2.99789190    1.69531405   -1.87498200
 O          0.34385800   -2.27540708   -1.47599196
 O          2.62735796   -2.23898792    0.19696300
 H          3.69749999    0.03104400   -0.01220000
 H          0.88698900   -1.87911701    1.22626603
 H         -0.18439800   -0.51190799   -0.48235500
 H          2.42202902   -0.82023001   -2.15672898
 H          1.22642004    1.63076198   -0.80824101
 C          3.29781008   -2.70574093    1.37128198
 H          0.07878300   -2.95276904   -0.83741701
 H          3.74113202    1.44758606    1.95318794
 H          3.89270496    2.42762399    0.48088300
 H          2.53780794    1.94091904   -2.68726110
 H          0.65567499   -0.53015798   -3.48860693
 H          1.53306699    2.11121392    2.00382900
 H          2.58685303   -3.19475102    2.04560089
 H          3.78934908   -1.88120103    1.89384305
 H          4.04417896   -3.42576504    1.03904903
 C         -3.32835889   -0.29046401    1.48855805
 C         -1.85450196   -0.65314698    1.16011500
 C         -3.81863689    0.73927999    0.46571100
 C         -3.81606793    0.09643300   -0.92492503
 C         -2.39546204   -0.46239400   -1.21484101
 N         -1.51639402   -0.01567100   -0.12284500
 H         -3.38209605    0.11586500    2.49980092
 H         -1.16005099   -0.27272001    1.90866494
 H         -4.82629108    1.07022905    0.72230899
 H         -4.54099894   -0.71762401   -0.97277200
 H         -1.98491502   -0.08475000   -2.14986491
 H         -3.94847894   -1.18786800    1.44792199
 H         -1.71344197   -1.72852802    1.04936004
 C         -2.85802698    1.93239796    0.46636701
 H         -4.08322001    0.83499300   -1.68314505
 H         -2.37793589   -1.55159402   -1.22777104
 C         -1.46254396    1.45201302   -0.01681100
 H         -2.77733397    2.35045791    1.47152805
 H         -3.21896601    2.71734810   -0.20018500
 H         -0.67343497    1.71019399    0.68799001
 H         -1.21194303    1.84295404   -1.00222099
