48
wb97x-d4 ma-def2-tzvp(-f) cpcm(dmso) E: -1056.430144814415, G: -1056.05410389
 C          1.49794304   -1.26771998    0.67665398
 C          0.73861700   -1.30867600   -0.64373398
 C          1.47479200   -0.60427499   -1.76516902
 O          0.60836101   -0.59671301   -2.88857198
 C          1.90131199    0.79360998   -1.34021795
 C          2.63062501    0.72772300    0.00682200
 C          2.93778992    2.11114192    0.54877299
 O          3.73646688    2.07482195    1.72731602
 O          1.80634499    0.07291500    0.97989398
 O          2.75583005    1.29448605   -2.36174011
 O          0.30158600   -2.57372403   -0.95306301
 O          2.62501311   -2.08017707    0.55314499
 H          3.56498790    0.16906901   -0.12555499
 H          0.85967797   -1.61187696    1.49930406
 H         -0.25575301   -0.63766497   -0.40981001
 H          2.37786293   -1.18831599   -1.98761296
 H          1.01154101    1.42533803   -1.24277103
 C          3.32147002   -2.25643110    1.78908098
 H          0.04877600   -2.58603597   -1.88952994
 H          3.42692208    2.70091891   -0.23246300
 H          2.00115991    2.60384393    0.82159001
 H          2.57979107    2.23314905   -2.48602390
 H          1.13253605   -0.38411000   -3.67001295
 H          4.62154722    1.78057897    1.48130202
 H          3.76203203   -1.31501305    2.12744808
 H          4.11057520   -2.98334002    1.60167599
 H          2.64195204   -2.63960910    2.55778003
 C         -3.70144701   -0.81272000    0.93728799
 C         -2.33905101   -1.30692005    0.38104200
 C         -3.87031007    0.66542703    0.57053101
 C         -3.64959311    0.83215201   -0.93691802
 C         -2.17276192    0.48240000   -1.26590502
 N         -1.58718503   -0.12094600   -0.05701800
 H         -3.72781706   -0.93717599    2.02168202
 H         -1.75142598   -1.82315099    1.13976705
 H         -4.86866713    1.00970197    0.84498501
 H         -4.32013321    0.17353600   -1.49252903
 H         -1.58377397    1.36550999   -1.51057994
 H         -4.50366783   -1.41385496    0.50654501
 H         -2.45938206   -1.95737100   -0.48415500
 C         -2.80766106    1.48240399    1.31262696
 H         -3.85131598    1.85948598   -1.24448395
 H         -2.08980489   -0.23932201   -2.07676601
 C         -1.41322505    0.86076498    1.02724802
 H         -2.99110603    1.47173905    2.38823509
 H         -2.82780695    2.52047205    0.97445202
 H         -1.01463306    0.32987300    1.89091003
 H         -0.68899399    1.60408199    0.69853300
