48
wb97x-d4 ma-def2-tzvp(-f) cpcm(dmso) E: -1056.429530435732, G: -1056.05405704
 C          1.41171300   -1.53307605    0.02256600
 C          0.74894297   -0.80390799   -1.13802898
 C          1.59354103    0.34285200   -1.65708995
 O          0.82078397    1.01530099   -2.63850808
 C          2.02512193    1.25843406   -0.51499099
 C          2.61669803    0.43531600    0.63634098
 C          2.87518191    1.29711604    1.85889101
 O          3.55543995    0.59345299    2.89338398
 O          1.70266294   -0.59492397    1.03357506
 O          2.93742609    2.24054098   -0.98451799
 O          0.29335800   -1.66706705   -2.10532498
 O          2.54220891   -2.18438911   -0.47159699
 H          3.55882907   -0.01734100    0.30092400
 H          0.72135597   -2.25024891    0.48038101
 H         -0.23953600   -0.29751500   -0.62293798
 H          2.49125004   -0.09333700   -2.11661196
 H          1.15368795    1.81190801   -0.15539300
 C          3.16337204   -3.03395891    0.49611199
 H          0.13338999   -1.15892100   -2.91641903
 H          3.43701792    2.18435597    1.55439997
 H          1.91768301    1.61773205    2.27687192
 H          3.74054694    1.79658902   -1.28799903
 H          1.41078603    1.56867599   -3.16373610
 H          4.46141720    0.43490300    2.60302496
 H          2.43567801   -3.74542594    0.90048999
 H          3.59369397   -2.44738102    1.31197703
 H          3.95431805   -3.57255411   -0.02397500
 C         -2.95165205    1.17842603    1.49257803
 C         -1.51171196    1.00206494    0.93900800
 C         -3.93918991    0.56882501    0.49118099
 C         -3.72025299   -0.94758600    0.44852301
 C         -2.21274209   -1.21828401    0.19653600
 N         -1.59544897    0.06032700   -0.19041499
 H         -3.14998507    2.24183011    1.63550901
 H         -1.10588801    1.93743205    0.55586702
 H         -4.96429491    0.79246497    0.79049098
 H         -4.01235819   -1.40879202    1.39317298
 H         -2.05118608   -1.92998695   -0.61313498
 H         -3.04270792    0.68197799    2.46076298
 H         -0.82906902    0.58746397    1.67953002
 C         -3.65511894    1.14715600   -0.89971203
 H         -4.31895781   -1.39453804   -0.34762999
 H         -1.70519900   -1.56939304    1.09480703
 C         -2.25650501    0.65823501   -1.36215603
 H         -3.67388511    2.23838091   -0.86614102
 H         -4.40688515    0.81659102   -1.61817598
 H         -1.63094795    1.47257400   -1.72213995
 H         -2.32259011   -0.11229800   -2.13026810
