48
wb97x-d4 ma-def2-tzvp(-f) cpcm(dmso) E: -1056.430908637197, G: -1056.05401579
 C          1.28239596   -1.56123495   -0.52519602
 C          0.82200599   -0.38336900   -1.37503600
 C          1.78981996    0.78306401   -1.33141398
 O          1.18133295    1.84799194   -2.04738307
 C          2.12084198    1.14711595    0.10793100
 C          2.54807711   -0.10659200    0.88051403
 C          2.71402311    0.15937600    2.37316704
 O          3.72738194    1.13570404    2.62458205
 O          1.53395998   -1.11101699    0.78866601
 O          3.15601707    2.11825204    0.06277000
 O          0.45351601   -0.77276301   -2.64021492
 O          2.40139294   -2.11622190   -1.14173996
 H          3.49128389   -0.48079100    0.46519300
 H          0.48339999   -2.30500197   -0.42560801
 H         -0.19259900    0.00477900   -0.82092398
 H          2.71466303    0.46967399   -1.83248305
 H          1.22502995    1.56562102    0.58682001
 C          2.79770589   -3.36137891   -0.56129998
 H          0.40831199    0.02013800   -3.19762397
 H          1.78213501    0.56280500    2.77611303
 H          2.94060302   -0.77951998    2.88577604
 H          3.50829291    2.19553900    0.96356499
 H          1.86417305    2.48747611   -2.28133392
 H          4.58893394    0.70965999    2.53553891
 H          3.60896802   -3.74834895   -1.17627299
 H          1.95996201   -4.06667709   -0.56723201
 H          3.14996600   -3.22042608    0.46389601
 C         -3.34250212    1.87992799   -0.12115400
 C         -1.84363306    1.66878605   -0.46764100
 C         -3.88748097    0.58991700    0.50104100
 C         -2.98452997    0.18260001    1.66955101
 C         -1.57936203   -0.17466800    1.11227202
 N         -1.55312705    0.23485500   -0.30132201
 H         -3.90197206    2.12787199   -1.02545702
 H         -1.61321902    1.94351304   -1.49536300
 H         -4.90934277    0.74372602    0.85146302
 H         -2.90265608    1.00167298    2.38682795
 H         -1.38461602   -1.24577796    1.14974701
 H         -3.43542409    2.71461511    0.57555097
 H         -1.18558395    2.21666288    0.20533501
 C         -3.85594893   -0.51981300   -0.55571198
 H         -3.39486194   -0.68462503    2.18949699
 H         -0.78071100    0.35254300    1.63107204
 C         -2.41977000   -0.60455298   -1.14281499
 H         -4.56024313   -0.30849701   -1.36176705
 H         -4.12990379   -1.47629905   -0.10595700
 H         -2.36856103   -0.21482800   -2.15873694
 H         -2.02814007   -1.62148404   -1.12719905
