48
wb97x-d4 ma-def2-tzvp(-f) cpcm(dmso) E: -1056.429873182414, G: -1056.05395126
 C          1.35217202   -1.65044701   -0.27574599
 C          0.79956901   -0.67209601   -1.30053794
 C          1.74323595    0.48664600   -1.55734706
 O          1.06352699    1.38447297   -2.42178607
 C          2.16222310    1.13805902   -0.24366300
 C          2.63086390    0.07875600    0.76161402
 C          2.89742208    0.65673500    2.13432503
 O          1.72560096    1.32173002    2.60314894
 O          1.63668501   -0.94473797    0.91107100
 O          3.16190195    2.12163901   -0.46895099
 O          0.34083399   -1.30253506   -2.43202901
 O          2.47113395   -2.26722693   -0.83588201
 H          3.56490302   -0.36730200    0.39850301
 H          0.59992701   -2.39665699    0.00163800
 H         -0.17229199   -0.19358400   -0.73994201
 H          2.63450789    0.08165300   -2.05645609
 H          1.31026495    1.67582095    0.17169000
 C          2.97261596   -3.34418106   -0.04106100
 H          0.25935200   -0.64163101   -3.13737297
 H          3.17662692   -0.15966800    2.80889201
 H          3.73715091    1.35438299    2.06014895
 H          3.95357800    1.68684494   -0.81319398
 H          1.70160604    2.02563095   -2.75731492
 H          1.92204797    1.69298899    3.47018290
 H          3.77130103   -3.81054497   -0.61609000
 H          2.18037105   -4.07533598    0.15115100
 H          3.37084699   -2.97745109    0.90879500
 C         -3.68615007    0.97199702   -0.97509497
 C         -2.28887892    0.48357400   -1.44496095
 C         -3.82532811    0.68979698    0.52447701
 C         -2.80825591    1.54633796    1.28559804
 C         -1.39867997    1.30310798    0.67851597
 N         -1.51242602    0.15713100   -0.23897800
 H         -4.45830011    0.44802201   -1.54059803
 H         -2.35233688   -0.42013699   -2.05028009
 H         -4.83758402    0.92320198    0.85834998
 H         -3.05574489    2.60578203    1.20227504
 H         -0.65738702    1.05857205    1.43848598
 H         -3.78935909    2.04151106   -1.16861200
 H         -1.74733198    1.25112498   -1.99629796
 C         -3.51334310   -0.78829998    0.78169399
 H         -2.80801296    1.27915299    2.34425402
 H         -1.05342305    2.15607190    0.09490200
 C         -2.02095509   -1.04610705    0.43826401
 H         -4.15178394   -1.42278099    0.16398001
 H         -3.68945408   -1.04461098    1.82759404
 H         -1.89873695   -1.89283705   -0.23728199
 H         -1.41450500   -1.20256996    1.32992804
