48
wb97x-d4 ma-def2-tzvp(-f) cpcm(dmso) E: -1056.429274204704, G: -1056.05394341
 C          1.45512903   -1.43950403    0.41867301
 C          0.74509102   -1.16515505   -0.89889997
 C          1.52992499   -0.23312800   -1.79987502
 O          0.69809997    0.05361000   -2.91359806
 C          1.96582198    1.01952100   -1.05203104
 C          2.61442804    0.64327002    0.28558701
 C          2.88628292    1.86668205    1.14158905
 O          3.62676907    1.56000996    2.31833792
 O          1.73847103   -0.20585200    1.03882205
 O          2.89090705    1.69607902   -1.89655399
 O          0.31399700   -2.31736898   -1.51060903
 O          2.59460592   -2.19650793    0.14380600
 H          3.55620694    0.11944500    0.08419200
 H          0.79853100   -1.97308505    1.11444795
 H         -0.25423801   -0.54685003   -0.56472600
 H          2.43019009   -0.76920199   -2.12757492
 H          1.09006703    1.65022898   -0.86969399
 C          3.25177598   -2.65716910    1.32732105
 H          0.11860700   -2.11354804   -2.43889904
 H          3.40943909    2.61685300    0.54058403
 H          1.93417299    2.28930497    1.47239804
 H          2.77545404    2.64659810   -1.79246700
 H          1.24641097    0.43353000   -3.61051202
 H          4.52726316    1.33429301    2.05650091
 H          2.55106592   -3.21170712    1.96042800
 H          3.67074490   -1.82065499    1.89268100
 H          4.05439520   -3.31736588    1.00175703
 C         -3.10492992    0.08889600    1.76331902
 C         -1.73975897   -0.46906599    1.27691603
 C         -3.87398410    0.62676400    0.55248702
 C         -3.95886493   -0.47382301   -0.51065803
 C         -2.52334905   -0.78972900   -1.01370895
 N         -1.58300495   -0.08009700   -0.13380501
 H         -2.94171810    0.88523799    2.49195290
 H         -0.90260297   -0.05234600    1.83549798
 H         -4.87691116    0.93499702    0.85201102
 H         -4.41162300   -1.37316597   -0.08872500
 H         -2.35419106   -0.43355200   -2.02956605
 H         -3.66522408   -0.70967299    2.25216794
 H         -1.70247900   -1.55733204    1.32337403
 C         -3.10796094    1.81900203   -0.03018700
 H         -4.57007122   -0.14827700   -1.35392296
 H         -2.29533410   -1.85393000   -0.96172202
 C         -1.64584696    1.37952495   -0.31460300
 H         -3.10111403    2.65361905    0.67257297
 H         -3.58046103    2.15593290   -0.95485699
 H         -0.94056499    1.82742500    0.38472399
 H         -1.33962095    1.60726297   -1.33495200
