48
wb97x-d4 ma-def2-tzvp(-f) cpcm(dmso) E: -1056.430526246903, G: -1056.0538844900002
 C          1.47112596   -1.39804006    0.61948597
 C          0.76367599   -1.26869595   -0.72381902
 C          1.56350505   -0.47445399   -1.73754203
 O          0.73432600   -0.31029701   -2.87746000
 C          2.01942492    0.85085899   -1.13767099
 C          2.70261598    0.60969198    0.21171100
 C          3.09093308    1.89171898    0.92795002
 O          1.98675895    2.75902295    1.17075396
 O          1.82179201   -0.11397300    1.08133805
 O          2.86512089    1.54999995   -2.03940392
 O          0.29918000   -2.47829509   -1.18143296
 O          2.56994605   -2.24033809    0.44683000
 H          3.61953497    0.02820300    0.04940800
 H          0.78774500   -1.80144405    1.37617695
 H         -0.21942700   -0.59031397   -0.46204001
 H          2.45083404   -1.06903803   -1.99752796
 H          1.14473104    1.48930502   -0.99121100
 C          3.20189691   -2.58976889    1.68072200
 H          0.07814900   -2.38113308   -2.12099290
 H          3.50460100    1.62486804    1.90273404
 H          3.86822200    2.39928794    0.35074300
 H          3.66886902    1.03084195   -2.17927909
 H          1.28814995   -0.04767800   -3.62206507
 H          1.84451401    3.30311704    0.38849601
 H          3.97523689   -3.31794000    1.44023502
 H          2.47498012   -3.03658104    2.36732197
 H          3.65634704   -1.71319699    2.14978790
 C         -3.72885704   -0.78739798    0.70738399
 C         -2.36856008   -1.26740396    0.13321200
 C         -3.81913805    0.73371500    0.54104000
 C         -3.52168989    1.09144700   -0.91932797
 C         -2.04423594    0.72749698   -1.22846103
 N         -1.54521704   -0.07082000   -0.09576500
 H         -3.80292702   -1.05604303    1.76306701
 H         -1.83905399   -1.92010903    0.82693398
 H         -4.81404495    1.08431196    0.81989300
 H         -4.18777418    0.54125202   -1.58706605
 H         -1.41098905    1.60995305   -1.31231499
 H         -4.53864908   -1.28578603    0.17223600
 H         -2.48221803   -1.77615595   -0.82309401
 C         -2.75743604    1.39141798    1.42904902
 H         -3.67154098    2.15813208   -1.09380603
 H         -1.94604099    0.12927601   -2.13264990
 C         -1.38303900    0.73584598    1.12610495
 H         -2.99449301    1.25419199    2.48531699
 H         -2.71080899    2.46355200    1.22728300
 H         -1.06327605    0.06438800    1.92222297
 H         -0.60279900    1.47300899    0.94549298
