48
wb97x-d4 ma-def2-tzvp(-f) cpcm(dmso) E: -1056.430465429072, G: -1056.05374931
 C          1.30940700   -1.65295398   -0.39177901
 C          0.78985500   -0.59190297   -1.35058999
 C          1.75355601    0.56831598   -1.50460398
 O          1.11264801    1.53022695   -2.32978702
 C          2.14744902    1.12126303   -0.14351401
 C          2.58789706   -0.01508100    0.79066300
 C          2.73978591    0.45342901    2.23057508
 O          3.75581694    1.45945001    2.27149796
 O          1.59412301   -1.04246795    0.84856099
 O          3.19890404    2.04956889   -0.36375099
 O          0.35246000   -1.12871099   -2.53667593
 O          2.42167902   -2.25193405   -0.98060501
 H          3.53704691   -0.42523500    0.42807299
 H          0.53409302   -2.39653111   -0.17518499
 H         -0.19651499   -0.14923300   -0.77681500
 H          2.65525293    0.18681499   -2.00013995
 H          1.27796996    1.62547398    0.29932600
 C          2.87806797   -3.40681195   -0.27196899
 H          0.28516299   -0.40927300   -3.18465590
 H          1.78303695    0.85860699    2.57635307
 H          3.01394391   -0.39883399    2.85989499
 H          3.55625010    2.27619004    0.50943398
 H          1.78501296    2.11962390   -2.69093108
 H          3.68853498    1.92616606    3.11204100
 H          3.26568198   -3.13358808    0.71300101
 H          3.67618990   -3.84402490   -0.87023097
 H          2.06327295   -4.12952900   -0.15821800
 C         -3.23622203    1.90589499   -0.10508700
 C         -1.87908804    1.51418102   -0.74818897
 C         -3.85349894    0.65556800    0.52923000
 C         -2.97249508    0.21307100    1.70271504
 C         -1.50680697    0.09267200    1.20562100
 N         -1.54006398    0.16417199   -0.26507601
 H         -3.89273500    2.31385708   -0.87545103
 H         -1.93360901    1.46821702   -1.83534396
 H         -4.86543989    0.86853200    0.87732601
 H         -3.01537490    0.94050199    2.51499510
 H         -1.05250204   -0.85424900    1.49158800
 H         -3.08119106    2.67664599    0.65259397
 H         -1.07648003    2.19007611   -0.45866600
 C         -3.87989092   -0.46412399   -0.51723498
 H         -3.31466389   -0.74897403    2.08975792
 H         -0.88039601    0.91026098    1.56052303
 C         -2.41628408   -0.86385101   -0.84712601
 H         -4.38722992   -0.12304900   -1.42186499
 H         -4.41142416   -1.33829606   -0.13762499
 H         -2.23118591   -0.90024900   -1.92017400
 H         -2.13999295   -1.81987596   -0.40247801
