48
wb97x-d4 ma-def2-tzvp(-f) cpcm(dmso) E: -1056.429529840956, G: -1056.05356364
 C          1.45750701   -1.59754395    0.08320300
 C          0.79078799   -0.90383202   -1.10401404
 C          1.62926698    0.21566100   -1.68599498
 O          0.83211899    0.93308902   -2.61433506
 C          2.15140104    1.12840199   -0.58379298
 C          2.80124497    0.31707600    0.53666699
 C          3.22036600    1.16149998    1.72560406
 O          2.13637304    1.88899004    2.29451704
 O          1.85589194   -0.64237398    1.03585303
 O          3.09224010    2.00467110   -1.19580102
 O          0.33556101   -1.75038397   -2.08991098
 O          2.51943493   -2.35174489   -0.41879299
 H          3.68694210   -0.19581699    0.14603300
 H          0.74070299   -2.24404001    0.60483402
 H         -0.18860500   -0.36003199   -0.62247002
 H          2.48760509   -0.24392800   -2.19512796
 H          1.31700397    1.70123398   -0.17308401
 C          3.11363792   -3.20262909    0.56520897
 H          0.04234000   -2.58660603   -1.70123303
 H          3.68432212    0.50845701    2.47259498
 H          3.96145606    1.89509296    1.40431094
 H          3.06194711    2.85663199   -0.74674201
 H          1.38023806    1.64484894   -2.96885800
 H          1.49510002    1.24864399    2.62549901
 H          2.35084605   -3.83507204    1.03145695
 H          3.62190008   -2.61499906    1.33398604
 H          3.83804989   -3.82504797    0.04188000
 C         -3.72608209    0.63695502   -1.11586499
 C         -2.32720304    0.05745400   -1.46134305
 C         -3.84829593    0.74406701    0.40788600
 C         -2.84358501    1.78530002    0.91212702
 C         -1.43700302    1.42366195    0.36252600
 N         -1.53195000    0.07564100   -0.22347300
 H         -4.49658203   -0.02097700   -1.52094698
 H         -2.38400102   -0.97651899   -1.79933298
 H         -4.86247396    1.03671598    0.68412101
 H         -3.11588001    2.78394198    0.56703401
 H         -0.68259001    1.39803302    1.14808297
 H         -3.84349203    1.62107205   -1.57394099
 H         -1.80299902    0.65235800   -2.20711303
 C         -3.50406909   -0.61556703    1.02680695
 H         -2.82556200    1.79582596    2.00375009
 H         -1.11794496    2.10354996   -0.42653599
 C         -2.00636601   -0.91886002    0.75117397
 H         -4.12865877   -1.39754200    0.59055299
 H         -3.67442894   -0.60563600    2.10449195
 H         -1.86236000   -1.91049695    0.32134399
 H         -1.39415801   -0.81922698    1.64716005
