48
wb97x-d4 ma-def2-tzvp(-f) cpcm(dmso) E: -1056.429136497151, G: -1056.0535021800001
 C          1.47036803   -1.43566704    0.52168900
 C          0.78630102   -1.20453000   -0.82541299
 C          1.61014605   -0.33687600   -1.76360798
 O          0.86934203    0.06397300   -2.90524006
 C          2.07482195    0.92127502   -1.04444802
 C          2.75297809    0.55837500    0.27256700
 C          3.18248200    1.76995897    1.08241796
 O          2.11605692    2.67129493    1.36514294
 O          1.84392202   -0.20012900    1.07992804
 O          3.00941896    1.63995004   -1.83399498
 O          0.34479499   -2.33756399   -1.46904504
 O          2.54804206   -2.29676104    0.30502799
 H          3.64881206   -0.03767400    0.06311400
 H          0.76585501   -1.87588894    1.23965597
 H         -0.20326100   -0.54266900   -0.53271598
 H          2.49064302   -0.91806102   -2.06487799
 H          1.19810796    1.54570794   -0.83346701
 C          3.13905811   -2.76343107    1.52112603
 H          0.10383700   -3.02104497   -0.82762498
 H          3.56286502    1.41845703    2.04379797
 H          3.99407196    2.27743602    0.55478901
 H          2.58779597    1.83170104   -2.68121004
 H          0.84006798   -0.67006302   -3.52987194
 H          1.99929297    3.25524998    0.60777903
 H          3.61258793   -1.94229901    2.06524396
 H          3.89130211   -3.49907207    1.24030495
 H          2.38061690   -3.23424411    2.15564799
 C         -3.81089211   -0.72927701    0.28167900
 C         -2.35822296   -1.21449494    0.02290300
 C         -3.78563404    0.78484702    0.51837099
 C         -3.33572698    1.47861302   -0.77114499
 C         -1.99952400    0.84166902   -1.23845994
 N         -1.51725399   -0.01941500   -0.14451300
 H         -4.21293211   -1.25030303    1.15200102
 H         -1.95888102   -1.78166199    0.86411798
 H         -4.77753592    1.13536704    0.80812198
 H         -4.08413792    1.35882103   -1.55631304
 H         -1.23655105    1.59068894   -1.44272494
 H         -4.44125319   -0.96615899   -0.57758301
 H         -2.28303289   -1.81171501   -0.88532603
 C         -2.77230597    1.09622395    1.62410498
 H         -3.19640899    2.54705596   -0.59461498
 H         -2.12689495    0.21210200   -2.11781693
 C         -1.35358596    0.72314602    1.11832201
 H         -3.00889707    0.52564102    2.52449393
 H         -2.79391789    2.15695691    1.87965202
 H         -0.82299602    0.08437500    1.82203496
 H         -0.74373901    1.60011303    0.90598398
