48
wb97x-d4 ma-def2-tzvp(-f) cpcm(dmso) E: -1056.431342943145, G: -1056.0552852800001
 C          1.44158602   -1.48278797    0.06617400
 C          0.77478302   -0.85734302   -1.15093303
 C          1.60587800    0.25472400   -1.76365495
 O          0.83314002    0.81851000   -2.81047702
 C          2.00615311    1.27308095   -0.69985503
 C          2.62940001    0.55156100    0.49853799
 C          2.88103104    1.48627496    1.66544998
 O          3.54708791    0.82494801    2.73546505
 O          1.73478103   -0.45770600    0.98995799
 O          2.88116407    2.25150895   -1.24041605
 O          0.33472401   -1.80032003   -2.04755592
 O          2.57066393   -2.17719889   -0.36543301
 H          3.57439995    0.08657700    0.19274500
 H          0.74889100   -2.15298510    0.58784598
 H         -0.22211400   -0.32517999   -0.68066299
 H          2.51723289   -0.20417300   -2.17192292
 H          1.11515403    1.81800497   -0.37492099
 C          3.18531704   -2.94067693    0.67609000
 H          0.15636800   -1.35481298   -2.89104009
 H          3.52719688    2.30282593    1.34331799
 H          1.92452300    1.90564704    2.00125599
 H          3.70363402    1.81923604   -1.50684500
 H          1.41688204    1.34278798   -3.37139893
 H          2.98494792    0.09373100    3.01962900
 H          3.61227393   -2.28618193    1.44041395
 H          3.97800899   -3.52344394    0.20920300
 H          2.45393395   -3.61335993    1.13640106
 C         -3.45647597    1.50890505   -0.54465503
 C         -2.09585500    1.03033996   -1.11803603
 C         -3.86825109    0.56071901    0.58639199
 C         -2.87442708    0.71456301    1.74221098
 C         -1.43505096    0.54326099    1.18613899
 N         -1.55910599    0.02310200   -0.18656801
 H         -4.20129395    1.50850296   -1.34218097
 H         -2.20128107    0.55113101   -2.09070992
 H         -4.87866116    0.79450703    0.92553902
 H         -2.96462393    1.70039904    2.20130491
 H         -0.84969199   -0.16584100    1.76858306
 H         -3.36332393    2.52916408   -0.16694100
 H         -1.37372601    1.84140098   -1.19429898
 C         -3.80590892   -0.88040900    0.06793400
 H         -3.06925106   -0.03673900    2.51023793
 H         -0.89930803    1.49013102    1.13254595
 C         -2.32397008   -1.23280394   -0.23214900
 H         -4.40472698   -0.98138702   -0.83941001
 H         -4.19507885   -1.57798600    0.81125998
 H         -2.19741011   -1.67232394   -1.22096705
 H         -1.89962494   -1.90187895    0.51640099
