48
wb97x-d4 ma-def2-tzvp(-f) cpcm(dmso) E: -1056.429683228228, G: -1056.0531224800002
 C          1.37721300   -1.58823895    0.16301399
 C          0.77152401   -0.92290401   -1.06521499
 C          1.65632904    0.17327400   -1.63008797
 O          0.93472898    0.78723103   -2.68613291
 C          2.04923201    1.14858496   -0.52642399
 C          2.61211491    0.38976899    0.68143803
 C          2.85226798    1.29644203    1.88343096
 O          3.96702194    2.15941501    1.69715595
 O          1.66779304   -0.59351701    1.12161803
 O          2.97107005    2.12409210   -1.00453496
 O          0.33604401   -1.83741295   -1.99250495
 O          2.50244594   -2.30189610   -0.24670701
 H          3.55585098   -0.09271600    0.40002301
 H          0.64970702   -2.25054502    0.64592499
 H         -0.22662400   -0.37004501   -0.61926502
 H          2.56359911   -0.30688101   -2.02168393
 H          1.16445696    1.71113396   -0.21539900
 C          3.06618309   -3.10142994    0.79633898
 H          0.19881700   -1.37202096   -2.83312011
 H          1.94011903    1.86916804    2.09373999
 H          3.07420897    0.67158997    2.75034189
 H          3.75045490    1.67096901   -1.35465300
 H          1.56011903    1.23696005   -3.26631498
 H          3.82090712    2.64147210    0.87146300
 H          2.30504799   -3.76517892    1.21964502
 H          3.48464894   -2.47344494    1.58703899
 H          3.85904288   -3.69332194    0.34135601
 C         -2.96413207    0.74371803    1.67121005
 C         -1.50420403    0.53657401    1.18567204
 C         -3.90424490    0.61084199    0.46868500
 C         -3.85333800   -0.83364302   -0.04082200
 C         -2.36803508   -1.22397900   -0.26743501
 N         -1.57455897    0.01251900   -0.18957400
 H         -3.05223703    1.73242998    2.12447906
 H         -0.94623798    1.47158301    1.15342999
 H         -4.92363977    0.87172401    0.75736898
 H         -4.29512215   -1.51754296    0.68561298
 H         -2.20489001   -1.67138195   -1.24728501
 H         -3.21387792   -0.00101300    2.42966390
 H         -0.96298498   -0.18224300    1.79829800
 C         -3.41378498    1.54375994   -0.64339501
 H         -4.40998220   -0.92423099   -0.97566599
 H         -1.99798095   -1.89991796    0.50340497
 C         -2.03963304    1.02892005   -1.14876604
 H         -3.31317592    2.56261110   -0.26373699
 H         -4.11881208    1.55943596   -1.47616005
 H         -1.29331303    1.82036102   -1.19128001
 H         -2.11014390    0.54892701   -2.12418699
