48
wb97x-d4 ma-def2-tzvp(-f) cpcm(dmso) E: -1056.428805956261, G: -1056.0531147000002
 C          1.43847001   -1.49129295    0.36416000
 C          0.78513598   -1.13582599   -0.97144800
 C          1.63574600   -0.19337700   -1.80644500
 O          0.92732000    0.31290701   -2.92682099
 C          2.08685207    0.99583799   -0.97009403
 C          2.71899199    0.52048999    0.33576599
 C          3.10486603    1.65519404    1.25888503
 O          1.96160197    2.46549296    1.52541304
 O          1.79266202   -0.31313401    1.04343700
 O          3.05861902    1.75734603   -1.67118204
 O          0.35057399   -2.20152903   -1.72616100
 O          2.52423096   -2.32671189    0.09396400
 H          3.62832689   -0.04643800    0.10653900
 H          0.71956098   -1.99795794    1.02156603
 H         -0.20520800   -0.49613500   -0.64083803
 H          2.52147508   -0.75119501   -2.13544989
 H          1.21486402    1.61689401   -0.73805100
 C          3.09295106   -2.89615989    1.27630496
 H          0.05929800   -2.92878604   -1.15741205
 H          3.50023508    1.22586298    2.18581009
 H          3.89429688    2.23996091    0.77744102
 H          2.66954589    2.01403308   -2.51661706
 H          0.91201001   -0.36157501   -3.61573410
 H          2.23997903    3.18853593    2.09798789
 H          3.85575104   -3.60074210    0.94820303
 H          2.32436395   -3.42447996    1.85045195
 H          3.54952788   -2.12396407    1.90067697
 C         -3.74586511   -0.76546800    0.41189101
 C         -2.38545489   -1.18300295   -0.20874301
 C         -3.76724601    0.75985497    0.55693299
 C         -3.42199898    1.39017498   -0.79685098
 C         -1.95830202    1.02031100   -1.16042697
 N         -1.51219904    0.00075900   -0.19529501
 H         -3.87093592   -1.23931503    1.38747001
 H         -1.89913094   -1.97068202    0.36812699
 H         -4.75359201    1.09137106    0.88535100
 H         -4.10111380    1.02264094   -1.56874096
 H         -1.28555906    1.87216103   -1.07174695
 H         -4.55481100   -1.10429394   -0.23727500
 H         -2.48781896   -1.50467002   -1.24463904
 C         -2.70353007    1.17525494    1.57815599
 H         -3.51605892    2.47640610   -0.75174397
 H         -1.87348998    0.59820801   -2.16032696
 C         -1.34415102    0.55257601    1.16103399
 H         -2.96759105    0.82261300    2.57648706
 H         -2.61928010    2.26333189    1.61344397
 H         -1.05307102   -0.26827300    1.81528997
 H         -0.54084301    1.28679299    1.13125098
