48
wb97x-d4 ma-def2-tzvp(-f) cpcm(dmso) E: -1056.429085875609, G: -1056.05284763
 C          1.48237705   -1.57811797    0.18604501
 C          0.78255701   -1.02323103   -1.05443299
 C          1.59700406    0.05115800   -1.74468994
 O          0.80147201    0.63425601   -2.76337194
 C          2.06816792    1.09604704   -0.73617399
 C          2.71886492    0.44506899    0.48352799
 C          3.02041888    1.44156206    1.58915102
 O          1.85635304    2.12575698    2.04077196
 O          1.82388604   -0.52320403    1.05111694
 O          2.93820190    2.02606797   -1.36581004
 O          0.34196600   -1.96681702   -1.95282102
 O          2.58532906   -2.31336188   -0.25030199
 H          3.65639091   -0.04094100    0.18641900
 H          0.79994601   -2.21448803    0.76308298
 H         -0.20763300   -0.45052400   -0.61205000
 H          2.47776794   -0.43939799   -2.18389511
 H          1.20925903    1.67982495   -0.40413201
 C          3.21740603   -3.04799294    0.80205899
 H          0.07514300   -2.77413702   -1.49053800
 H          3.50459409    0.91262197    2.41702604
 H          3.70748806    2.19905400    1.21071398
 H          3.73963809    1.56253695   -1.64351702
 H          1.31661499    1.35356402   -3.15093803
 H          1.26393199    1.47079897    2.42913699
 H          3.98998094   -3.65760303    0.33580500
 H          2.48974991   -3.69365191    1.30483699
 H          3.67257309   -2.37253499    1.53089797
 C         -3.90228605   -0.34346199   -0.56121403
 C         -2.47305107   -0.65681100   -1.08048296
 C         -3.80925393    0.79228997    0.46331701
 C         -3.03427911    1.95514297   -0.16588600
 C         -1.56682706    1.50382400   -0.39436400
 N         -1.52311599    0.04332800   -0.20179801
 H         -4.33498287   -1.23397303   -0.10081300
 H         -2.25189495   -1.72290206   -1.04042602
 H         -4.80889702    1.11847103    0.75443500
 H         -3.48975706    2.24066591   -1.11624897
 H         -0.89031303    1.94992697    0.33343801
 H         -4.53301620   -0.05517500   -1.40360403
 H         -2.31104898   -0.29262701   -2.09440899
 C         -3.03911805    0.29031000    1.68974996
 H         -3.04087400    2.82701898    0.49012700
 H         -1.21522105    1.72387302   -1.40067804
 C         -1.69775105   -0.32853401    1.21253896
 H         -3.61336088   -0.46848199    2.22368908
 H         -2.84499693    1.11619699    2.37689900
 H         -1.70464802   -1.41706896    1.26748002
 H         -0.84476000    0.05566900    1.77033103
