48
wb97x-d4 ma-def2-tzvp(-f) cpcm(dmso) E: -1056.429344647774, G: -1056.05277571
 C          1.45387697   -1.44323099    0.58747900
 C          0.75796700   -1.17920005   -0.74301600
 C          1.57896304   -0.29739201   -1.66723800
 O          0.77027500   -0.00493700   -2.79943204
 C          2.02489805    0.95827800   -0.92782301
 C          2.70434690    0.57770997    0.38779399
 C          3.06576395    1.79295599    1.23447502
 O          4.18147612    2.49749899    0.70427197
 O          1.80009103   -0.20578800    1.17403603
 O          2.95726609    1.70341301   -1.70799506
 O          0.28549099   -2.32936192   -1.32360995
 O          2.55609608   -2.26011395    0.34041399
 H          3.61465311    0.00565600    0.17769900
 H          0.77317601   -1.92130494    1.29975700
 H         -0.22499301   -0.52168399   -0.42095301
 H          2.46651292   -0.86479902   -1.97153699
 H          1.14991999    1.57782698   -0.70659900
 C          3.17392612   -2.73412704    1.54053903
 H          0.11087200   -2.14511299   -2.26038909
 H          2.19076800    2.44915104    1.32527900
 H          3.34517503    1.45102894    2.23276210
 H          2.46874404    2.21280599   -2.36575508
 H          1.33611703    0.07035100   -3.57624698
 H          3.99314308    2.65554810   -0.23208600
 H          3.95251107   -3.43200397    1.23626804
 H          2.43944502   -3.25040388    2.16770411
 H          3.61916995   -1.90935695    2.10289001
 C         -3.42501307   -0.39116201    1.47425997
 C         -1.93622601   -0.72120100    1.17763901
 C         -3.90730309    0.65060300    0.46011901
 C         -3.85860610    0.03507100   -0.94188100
 C         -2.42154288   -0.49475801   -1.20439398
 N         -1.57716298   -0.05278100   -0.08363500
 H         -3.51210093   -0.00687400    2.49175310
 H         -1.26873899   -0.34366500    1.95167100
 H         -4.92685890    0.95905900    0.69706303
 H         -4.56796789   -0.78987497   -1.02360797
 H         -1.99661601   -0.09274700   -2.12310791
 H         -4.02736712   -1.29838598    1.39948905
 H         -1.77529299   -1.79151702    1.04923701
 C         -2.96864510    1.85983205    0.50880301
 H         -4.11850214    0.78324997   -1.69315195
 H         -2.38532209   -1.58313203   -1.23540604
 C         -1.55308497    1.41362095    0.05178700
 H         -2.92098403    2.25941205    1.52350104
 H         -3.32665300    2.65139604   -0.15150400
 H         -0.78656602    1.67148101    0.78186101
 H         -1.28510296    1.82896900   -0.91918498
