48
wb97x-d4 ma-def2-tzvp(-f) cpcm(dmso) E: -1056.429722067666, G: -1056.05264242
 C          1.44758403   -1.38120198    0.71756899
 C          0.71817201   -1.37795401   -0.61972898
 C          1.51905501   -0.69906503   -1.71297705
 O          0.68560201   -0.65007198   -2.86242604
 C          1.97959101    0.67839599   -1.26143599
 C          2.62259698    0.60916001    0.13038900
 C          2.85275602    1.98934698    0.72584897
 O          3.75733709    2.69418907   -0.12814599
 O          1.75395298   -0.04650000    1.06020403
 O          2.89727998    1.14701700   -2.23840690
 O          0.23243900   -2.61857891   -0.95306802
 O          2.57499290   -2.18978906    0.59150898
 H          3.57410097    0.07167800    0.05727300
 H          0.79774302   -1.74552703    1.52033198
 H         -0.24952000   -0.66300499   -0.40545201
 H          2.40300488   -1.31787801   -1.91182399
 H          1.10756600    1.34228003   -1.21346605
 C          3.24214005   -2.41617608    1.83611500
 H          0.02780200   -2.61874700   -1.90170300
 H          1.89446795    2.51542306    0.79258901
 H          3.27172899    1.88227701    1.73113203
 H          3.30836391    1.94646394   -1.87359703
 H          1.24193394   -0.50425899   -3.63658690
 H          3.76138306    3.62267399    0.12969001
 H          2.54688501   -2.83839011    2.56920695
 H          3.66639996   -1.48748004    2.22642708
 H          4.04178715   -3.12782192    1.63592803
 C         -3.84135008    0.14898100   -0.89608699
 C         -2.45119596   -0.48876300   -1.16815698
 C         -3.83969593    0.74751502    0.51421201
 C         -2.82260299    1.89189398    0.57102400
 C         -1.45162201    1.36812305    0.06405400
 N         -1.56446600   -0.09503500   -0.06132300
 H         -4.61297703   -0.61697400   -0.98750299
 H         -2.49497509   -1.57763398   -1.18366504
 H         -4.83484983    1.11822903    0.76487899
 H         -3.14212203    2.72420001   -0.05815800
 H         -0.64100200    1.58879101    0.75755501
 H         -4.04295778    0.92537200   -1.63664806
 H         -2.00783491   -0.13156500   -2.09632802
 C         -3.41646004   -0.33818099    1.50865602
 H         -2.72450399    2.25775194    1.59495902
 H         -1.20498097    1.76244903   -0.92108500
 C         -1.94524705   -0.73392099    1.20935404
 H         -4.06386423   -1.21186900    1.41274595
 H         -3.48688889    0.02777900    2.53416300
 H         -1.82639396   -1.81148100    1.09557295
 H         -1.26115799   -0.37212500    1.97638500
