48
wb97x-d4 ma-def2-tzvp(-f) cpcm(dmso) E: -1056.429890741672, G: -1056.05247618
 C          1.41414404   -1.57859695   -0.38982001
 C          0.90336603   -0.46362901   -1.30271494
 C          1.83505499    0.73598599   -1.34632802
 O          1.23469305    1.84534204   -1.99747002
 C          2.20815110    1.17132998    0.06285800
 C          2.70356011   -0.01914100    0.87885302
 C          2.97523499    0.32750100    2.33181810
 O          1.84007394    0.87506998    2.99424005
 O          1.70288098   -1.04749203    0.88207197
 O          3.24466395    2.14032102    0.02663400
 O          0.55426300   -0.85459501   -2.57439590
 O          2.52107310   -2.15262699   -1.01609600
 H          3.63088608   -0.40147299    0.43759501
 H          0.63587397   -2.33245111   -0.21766800
 H         -0.11462100   -0.06735800   -0.75126499
 H          2.74668694    0.43053901   -1.87460399
 H          1.32199705    1.58700895    0.55356401
 C          2.97960711   -3.34031892   -0.36435401
 H          0.23071200   -1.76637602   -2.57194209
 H          3.32731104   -0.57343900    2.84556389
 H          3.76161408    1.08146095    2.37491989
 H          2.93319297    2.87534499   -0.51656699
 H          1.28065896    1.70826495   -2.95079303
 H          1.17248297    0.18196499    3.05772591
 H          3.76280999   -3.75883889   -0.99476898
 H          2.16016603   -4.06006622   -0.26564500
 H          3.38648105   -3.11122298    0.62393701
 C         -3.03511190    2.04028392    0.26838499
 C         -1.54390299    1.70210195    0.00006800
 C         -3.80737400    0.72936100    0.44981000
 C         -3.08653402   -0.12523700    1.49796295
 C         -1.70881402   -0.55111802    0.92468601
 N         -1.46774399    0.25709099   -0.28309101
 H         -3.44642305    2.60659599   -0.56980199
 H         -1.14156604    2.23819804   -0.85726702
 H         -4.83024788    0.93444300    0.76933903
 H         -2.94694996    0.44553599    2.41825509
 H         -1.69462001   -1.59923995    0.62581998
 H         -3.10448289    2.65971303    1.16403198
 H         -0.92196500    1.89709103    0.87280101
 C         -3.81183791   -0.02405700   -0.88484102
 H         -3.66583395   -1.01859295    1.73709905
 H         -0.89496899   -0.36469001    1.62314403
 C         -2.34935308   -0.13335501   -1.39434004
 H         -4.41021776    0.50530797   -1.62791502
 H         -4.23633385   -1.02160203   -0.75470901
 H         -2.14917898    0.54174298   -2.22564697
 H         -2.09955597   -1.15208197   -1.68913805
