48
wb97x-d4 ma-def2-tzvp(-f) cpcm(dmso) E: -1056.431292333636, G: -1056.0552589600002
 C          1.41666305   -1.52865803    0.12988800
 C          0.76225299   -0.95620102   -1.11961901
 C          1.62076402    0.09281700   -1.79804003
 O          0.85791099    0.62235200   -2.87029505
 C          2.06361198    1.15562296   -0.80308503
 C          2.66694999    0.48925599    0.43739200
 C          2.94149590    1.48467803    1.54790401
 O          3.58227301    0.87130499    2.66053605
 O          1.74343896   -0.46114501    0.99051797
 O          3.02740407    1.96621704   -1.46508706
 O          0.29323801   -1.93513501   -1.96096206
 O          2.52342296   -2.27880096   -0.26555499
 H          3.59668493   -0.01758600    0.15806600
 H          0.70873201   -2.14807701    0.69238198
 H         -0.21740399   -0.37002599   -0.67899799
 H          2.51529193   -0.41292399   -2.18494296
 H          1.19407201    1.75604105   -0.51220798
 C          3.12193990   -2.99781895    0.81591803
 H          0.12822600   -1.53273702   -2.82844090
 H          3.61546612    2.26240706    1.18618500
 H          1.99585795    1.95150399    1.85104203
 H          2.95577312    2.86935997   -1.13760805
 H          1.45753598    1.08679903   -3.46629190
 H          3.00188494    0.16812900    2.97718310
 H          3.57201910   -2.31267190    1.53906202
 H          3.89505291   -3.62952304    0.38089901
 H          2.37440109   -3.62106991    1.31800997
 C         -2.79286790    1.01990700    1.65064895
 C         -1.40682197    0.48759601    1.19746196
 C         -3.83273292    0.64960599    0.58868998
 C         -3.75469899   -0.85770899    0.32356799
 C         -2.37239408   -1.17790103   -0.30739799
 N         -1.54707897    0.03478400   -0.19741499
 H         -2.75164509    2.10374904    1.77565503
 H         -0.63784897    1.25755298    1.22818899
 H         -4.83279610    0.91824001    0.93272501
 H         -3.87432909   -1.41226101    1.25639105
 H         -2.45052600   -1.42769098   -1.36474502
 H         -3.04976892    0.57639903    2.61402702
 H         -1.08074498   -0.36676899    1.78885698
 C         -3.50178194    1.39762998   -0.70745897
 H         -4.54300213   -1.17142606   -0.36251301
 H         -1.86221695   -1.98610997    0.21603100
 C         -2.02426195    1.10595906   -1.08784294
 H         -3.63293910    2.47294402   -0.57624298
 H         -4.16388988    1.07030296   -1.51148498
 H         -1.38030005    1.97112703   -0.93567097
 H         -1.92231405    0.75995803   -2.11532092
