48
wb97x-d4 ma-def2-tzvp(-f) cpcm(dmso) E: -1056.427837644994, G: -1056.05190326
 C          1.41987097   -1.55505502    0.09410400
 C          0.80952901   -0.91323698   -1.14742899
 C          1.67261803    0.18870801   -1.74372303
 O          0.97292298    0.89948499   -2.74991298
 C          2.10636401    1.17083204   -0.66161698
 C          2.66772103    0.42409101    0.55454999
 C          2.97756004    1.34609604    1.71393800
 O          1.80014300    2.06611991    2.07561588
 O          1.72933698   -0.55174297    1.02780497
 O          3.04864502    2.10776806   -1.15841997
 O          0.39985099   -1.78579700   -2.13024592
 O          2.52895498   -2.29861999   -0.31611800
 H          3.60182309   -0.07342200    0.26495099
 H          0.68747199   -2.20076489    0.59631902
 H         -0.19205500   -0.35211900   -0.71863300
 H          2.56550193   -0.29305801   -2.16656399
 H          1.24018002    1.75751305   -0.34999499
 C          3.08912396   -3.08901596    0.73599100
 H          0.11193100   -2.62418795   -1.74287605
 H          3.33479810    0.74028403    2.55364203
 H          3.77464294    2.03089094    1.41025996
 H          3.82355404    1.62804198   -1.47890496
 H          0.86193299    0.31719500   -3.51102901
 H          2.03702307    2.69000411    2.77027202
 H          2.32013798   -3.72941804    1.18075204
 H          3.52856493   -2.45422101    1.50966501
 H          3.86501408   -3.70529008    0.28410000
 C         -2.79103494    0.87234902    1.65946305
 C         -1.41409802    0.33068699    1.19165397
 C         -3.80248094    0.69339800    0.52268797
 C         -3.78269792   -0.76956701    0.06740400
 C         -2.39320111   -1.07437801   -0.55373198
 N         -1.51594102    0.06869900   -0.25571200
 H         -2.70453405    1.92836595    1.92333901
 H         -0.60791302    1.04450905    1.35197997
 H         -4.80258703    0.96606702    0.86340100
 H         -3.96328306   -1.43139398    0.91678798
 H         -2.44017911   -1.17772102   -1.63725400
 H         -3.10903502    0.32541499    2.54871202
 H         -1.15703797   -0.61025000    1.67685795
 C         -3.38484001    1.58220398   -0.65346301
 H         -4.55769300   -0.95392901   -0.67815399
 H         -1.94114006   -1.96971595   -0.12493500
 C         -1.90708303    1.27052402   -1.01330698
 H         -3.47486901    2.63759208   -0.39118400
 H         -4.02575493    1.39134800   -1.51665294
 H         -1.23420703    2.07592893   -0.72196501
 H         -1.77356195    1.05878699   -2.07242608
