48
wb97x-d4 ma-def2-tzvp(-f) cpcm(dmso) E: -1056.428035459164, G: -1056.05133213
 C          1.43939996   -1.56315303    0.23385200
 C          0.78809202   -0.90527999   -0.98234200
 C          1.60458803    0.23612200   -1.57019806
 O          0.83396399    1.01355505   -2.47413301
 C          2.09704804    1.16478503   -0.46981800
 C          2.75292397    0.37400401    0.65833402
 C          3.15077400    1.25504398    1.83737803
 O          4.29319000    2.05148101    1.54949403
 O          1.80805600   -0.57376498    1.16677797
 O          3.05570889    2.08432293   -0.98133200
 O          0.38727799   -1.76796806   -1.97671700
 O          2.51801610   -2.31798697   -0.22779299
 H          3.64169192   -0.14193800    0.27992499
 H          0.72194999   -2.20211601    0.76332903
 H         -0.21962500   -0.37463400   -0.54165900
 H          2.47265005   -0.19956701   -2.07954001
 H          1.24314797    1.71191394   -0.05487800
 C          3.10536504   -3.13229704    0.79121298
 H          0.11158700   -2.61558390   -1.60035396
 H          2.29789209    1.87978399    2.13167191
 H          3.41264296    0.61073297    2.67861891
 H          2.61309004    2.64894104   -1.62730503
 H          0.78498101    0.55061400   -3.31874800
 H          4.11230707    2.51769805    0.72095299
 H          3.58662701   -2.51571202    1.55456197
 H          3.85121799   -3.75557089    0.30015600
 H          2.34295607   -3.76499295    1.25764799
 C         -3.85544395    0.12456400   -1.07130599
 C         -2.39457297   -0.31929499   -1.36246002
 C         -3.92930889    0.67174000    0.35718399
 C         -3.01850891    1.89778805    0.47043601
 C         -1.57589400    1.49131298    0.06085300
 N         -1.58133602    0.04062000   -0.19153200
 H         -4.52444792   -0.72935700   -1.18915403
 H         -2.31539989   -1.39656603   -1.50182796
 H         -4.95758390    0.94759202    0.59694701
 H         -3.36993909    2.69691300   -0.18442100
 H         -0.85828799    1.68929398    0.85593599
 H         -4.15509701    0.89218199   -1.78716898
 H         -1.97370803    0.18722001   -2.22972202
 C         -3.43698406   -0.40449300    1.32985604
 H         -3.01695395    2.27380109    1.49501801
 H         -1.24852502    1.98382902   -0.85326701
 C         -1.95313203   -0.73137999    1.00500202
 H         -4.04245710   -1.30737197    1.23255599
 H         -3.51345491   -0.05247200    2.35986304
 H         -1.80712402   -1.78763604    0.77910101
 H         -1.27936196   -0.43671599    1.80900896
