48
wb97x-d4 ma-def2-tzvp(-f) cpcm(dmso) E: -1056.425537981306, G: -1056.05089543
 C          1.50697303    0.03488800    0.81880897
 C          0.78281498   -0.24306799   -0.51239598
 C          1.14355600    0.76580298   -1.58250499
 O          0.70527703    2.02947497   -1.11380804
 C          2.67107391    0.70814598   -1.83046103
 C          3.42676806    0.28277200   -0.56054902
 C          4.81004477    0.89524198   -0.48954499
 O          5.57444906    0.37053001    0.58965898
 O          2.71912694    0.71629399    0.60564297
 O          3.00021100   -0.14995500   -2.91223693
 O          0.96295798   -1.52082098   -1.00497794
 O          1.68017697   -1.20671403    1.43593001
 H          3.51982594   -0.80919802   -0.54507202
 H          0.91350698    0.69848400    1.45368397
 H         -0.37965500   -0.09330700   -0.28029901
 H          0.64135098    0.49365801   -2.51669908
 H          2.98568201    1.70986199   -2.13621593
 C          2.13314104   -1.11967504    2.78986502
 H          1.15577495   -2.10502291   -0.25246599
 H          5.35146713    0.66079700   -1.40780103
 H          4.71576691    1.98524106   -0.40916499
 H          2.72660995   -1.04702997   -2.67821693
 H          0.80394900    2.66909099   -1.82902098
 H          5.10249376    0.57417101    1.40651798
 H          2.15368795   -2.13667011    3.17813993
 H          1.44071305   -0.51104099    3.37997293
 H          3.13515997   -0.68734097    2.83425212
 C         -3.64360595   -1.48154199    0.83909798
 C         -2.14723802   -1.46289206    0.42218399
 C         -4.29533005   -0.17650101    0.36726701
 C         -4.01449919    0.00074700   -1.12989497
 C         -2.48568511    0.20596600   -1.32615495
 N         -1.84666705   -0.10110700   -0.03976000
 H         -3.72578192   -1.57502699    1.92368996
 H         -1.48343205   -1.69153798    1.25606000
 H         -5.37141705   -0.20947000    0.54461098
 H         -4.34598398   -0.88003099   -1.68341506
 H         -2.23617005    1.23503196   -1.58226204
 H         -4.13178921   -2.34482098    0.38440800
 H         -1.94062698   -2.14411592   -0.40269399
 C         -3.67074800    0.99663597    1.13069797
 H         -4.54445410    0.86945099   -1.52351606
 H         -2.07314110   -0.46627501   -2.07874799
 C         -2.12634110    0.91399097    0.98570597
 H         -3.93406701    0.95470399    2.18866396
 H         -4.03136396    1.94448900    0.72655201
 H         -1.64424706    0.59097898    1.90833294
 H         -1.69031596    1.85671902    0.65813398
