48
wb97x-d4 ma-def2-tzvp(-f) cpcm(dmso) E: -1056.427299304124, G: -1056.0507406200002
 C          1.38610494   -1.60291803   -0.14282200
 C          0.78767002   -0.66424698   -1.19179595
 C          1.65789294    0.54463899   -1.46772003
 O          0.91701800    1.45126104   -2.26752710
 C          2.10321593    1.18981504   -0.15801100
 C          2.67337608    0.15660700    0.81592703
 C          2.94541788    0.74524301    2.19633198
 O          4.04713583    1.64351296    2.19538403
 O          1.70428503   -0.87809598    1.02167106
 O          3.02433801    2.24654603   -0.41954300
 O          0.39281401   -1.27033401   -2.36210608
 O          2.48869109   -2.22666597   -0.72594398
 H          3.59952092   -0.26731601    0.41082600
 H          0.64596498   -2.34772396    0.17473200
 H         -0.22062600   -0.22564700   -0.65593600
 H          2.54713511    0.19193301   -2.01004505
 H          1.24097705    1.66991305    0.31009799
 C          3.01561689   -3.29266906    0.06873100
 H          0.04806600   -2.15670609   -2.18022704
 H          2.03566003    1.23637605    2.56422210
 H          3.19686508   -0.06855700    2.87892509
 H          3.79715991    1.87854505   -0.87073201
 H          1.47447896    2.22453499   -2.42220092
 H          3.87458205    2.30929303    1.51552403
 H          3.79387999   -3.76870990   -0.52589899
 H          2.22893405   -4.01912308    0.29770401
 H          3.44539809   -2.91141391    0.99865901
 C         -2.97220302    1.57040000    1.14142597
 C         -1.53245699    1.32314801    0.61333001
 C         -3.93508101    0.64011598    0.39707500
 C         -3.59948206   -0.81015098    0.75984299
 C         -2.08964992   -1.05167603    0.49147901
 N         -1.57966805    0.12151800   -0.23711300
 H         -3.23963189    2.61524105    0.97603399
 H         -1.17223799    2.14701295   -0.00173300
 H         -4.96553087    0.86701697    0.67491198
 H         -3.81184101   -1.00416696    1.81234205
 H         -1.92122900   -1.93322098   -0.12756900
 H         -3.01239705    1.37453794    2.21469808
 H         -0.82679302    1.13699901    1.42236197
 C         -3.74007106    0.83341002   -1.11023498
 H         -4.19814014   -1.49807501    0.15976401
 H         -1.51472998   -1.14113295    1.41296804
 C         -2.31203699    0.35743901   -1.49173200
 H         -3.86330199    1.88567305   -1.37413895
 H         -4.47374821    0.25405100   -1.67283595
 H         -1.76387894    1.10425901   -2.06369901
 H         -2.32746196   -0.58049101   -2.04540491
