48
wb97x-d4 ma-def2-tzvp(-f) cpcm(dmso) E: -1056.426115348661, G: -1056.0507009700002
 C          1.49925995   -1.56269705    0.15222600
 C          0.91327798   -0.79072398   -1.02791095
 C          1.80754697    0.34739599   -1.47608399
 O          1.09763801    1.05392396   -2.48294306
 C          2.18270493    1.22775304   -0.28978899
 C          2.70118594    0.37067801    0.87176299
 C          2.93649411    1.17610204    2.13097501
 O          1.72626901    1.83114100    2.50640988
 O          1.76077604   -0.66544801    1.19550395
 O          3.13417697    2.20966792   -0.67441201
 O          0.50961697   -1.63218403   -2.03946590
 O          2.67551088   -2.22198892   -0.24074200
 H          3.65727997   -0.08156500    0.58126801
 H          0.76955497   -2.27983499    0.53868598
 H         -0.08781000   -0.27386799   -0.57480198
 H          2.72109199   -0.09469600   -1.89691305
 H          1.30272305    1.78244996    0.03548600
 C          2.52177906   -3.62799096   -0.44560400
 H          0.43235701   -1.11248004   -2.85485101
 H          3.27158594    0.49734300    2.92240000
 H          3.72916603    1.90394104    1.93318498
 H          3.94721699    1.76407194   -0.94757003
 H          1.71817803    1.62635303   -2.94937706
 H          1.90616798    2.35873890    3.29206610
 H          1.85856903   -3.83124709   -1.29029500
 H          2.12627792   -4.10583496    0.45665601
 H          3.51476908   -4.02085590   -0.66145903
 C         -2.84406900    1.63155103    1.12762904
 C         -1.41519594    1.37113798    0.57741600
 C         -3.81269789    0.65356201    0.45463601
 C         -3.46600199   -0.76959401    0.90559500
 C         -1.95233798   -1.01015794    0.65733999
 N         -1.46388602    0.10339100   -0.16958900
 H         -3.12555599    2.66417098    0.91520900
 H         -1.09862101    2.14810205   -0.11793400
 H         -4.84123421    0.89459997    0.72747499
 H         -3.67979693   -0.90319598    1.96712506
 H         -1.76971996   -1.93960404    0.11762300
 H         -2.85796595    1.49097204    2.21030498
 H         -0.67654401    1.27144599    1.37189698
 C         -3.63332891    0.74659401   -1.06470704
 H         -4.05572510   -1.49771094    0.34509999
 H         -1.37833095   -1.00868106    1.58375597
 C         -2.21500301    0.22675800   -1.42815197
 H         -3.74626994    1.78103805   -1.39545095
 H         -4.37965202    0.14119400   -1.58140898
 H         -1.67607403    0.91535997   -2.07747889
 H         -2.24534988   -0.75908101   -1.89079201
