48
wb97x-d4 ma-def2-tzvp(-f) cpcm(dmso) E: -1056.428042160393, G: -1056.05061524
 C          1.44251394   -1.43840098    0.48209101
 C          0.71114600   -1.15857100   -0.83133399
 C          1.47387004   -0.23021200   -1.75426698
 O          0.60144597    0.15792599   -2.80511498
 C          2.00949502    0.97931898   -0.99701399
 C          2.70982695    0.56263500    0.29704300
 C          3.07386088    1.75635004    1.17371094
 O          3.97545195    2.64481401    0.51142800
 O          1.81609404   -0.22529200    1.08981895
 O          2.89189005    1.64808500   -1.88835800
 O          0.27876300   -2.27978897   -1.50127399
 O          2.52648711   -2.26695299    0.18963000
 H          3.61213493   -0.01138400    0.05805500
 H          0.77139598   -1.92623103    1.19985700
 H         -0.28670001   -0.53557497   -0.49026799
 H          2.32758594   -0.79247802   -2.15519094
 H          1.16742802    1.63369703   -0.73738003
 C          3.18064809   -2.75914192    1.36276102
 H          0.03543300   -2.97190690   -0.86953902
 H          2.17139506    2.33169198    1.39314497
 H          3.49793100    1.39747596    2.11557007
 H          3.35156202    2.32850909   -1.37236094
 H          1.10509098    0.71674103   -3.41005397
 H          4.85973978    2.25944591    0.54066300
 H          3.66437602   -1.94607902    1.91001594
 H          3.93198800   -3.47132397    1.02501905
 H          2.46042609   -3.26284599    2.01605010
 C         -3.26468492    0.03344400    1.66343403
 C         -1.89692795   -0.54881698    1.21853900
 C         -3.93885589    0.67446202    0.44640300
 C         -3.97898889   -0.35077900   -0.69204003
 C         -2.52252698   -0.64882100   -1.14113605
 N         -1.62491703   -0.05057600   -0.14078499
 H         -3.11494994    0.77722001    2.44843411
 H         -1.08363402   -0.22407401    1.86685503
 H         -4.95113707    0.99216902    0.70109999
 H         -4.46134901   -1.27017295   -0.35441601
 H         -2.28520107   -0.19776499   -2.10366797
 H         -3.88177896   -0.76982802    2.06915092
 H         -1.90934205   -1.63797498    1.17109704
 C         -3.10428190    1.87941802   -0.00130000
 H         -4.54210377    0.03672100   -1.54261804
 H         -2.31885004   -1.71808898   -1.18587196
 C         -1.63408005    1.42063999   -0.20275401
 H         -3.13248992    2.66946411    0.75080699
 H         -3.49755192    2.28492498   -0.93563801
 H         -0.97622699    1.78724301    0.58472502
 H         -1.24139798    1.72068906   -1.17302096
