48
wb97x-d4 ma-def2-tzvp(-f) cpcm(dmso) E: -1056.427063943602, G: -1056.05052372
 C          1.48316395   -1.39586902    0.56150103
 C          0.74436700   -1.13490200   -0.75226003
 C          1.48310697   -0.19259501   -1.68258595
 O          0.59474403    0.18752700   -2.72057390
 C          2.00113797    1.02329898   -0.91973501
 C          2.73909807    0.61212498    0.35297000
 C          3.13809299    1.80466402    1.21451700
 O          4.21594000    2.54008198    0.64969999
 O          1.85360503   -0.17581899    1.15744197
 O          2.80707407    1.83435798   -1.77155805
 O          0.32715401   -2.26479912   -1.41766298
 O          2.57052994   -2.22161698    0.27282101
 H          3.63561296    0.03466300    0.09953900
 H          0.81746697   -1.88042295    1.28646398
 H         -0.26109600   -0.52794302   -0.41565999
 H          2.34106398   -0.74369699   -2.09471703
 H          1.15394604    1.65388203   -0.63917702
 C          3.23145700   -2.69905090    1.44849300
 H          0.09281200   -2.95735407   -0.78311598
 H          2.26312089    2.44669008    1.37588596
 H          3.47737193    1.43444502    2.18361306
 H          3.54372597    1.30165100   -2.10178804
 H          1.06464899    0.80658603   -3.29385591
 H          3.94270802    2.81221604   -0.23685201
 H          2.51543498   -3.19710588    2.11067605
 H          3.71559095   -1.87876999    1.98443997
 H          3.98290491   -3.41326594    1.11533201
 C         -3.49641705   -0.41725600    1.40012395
 C         -2.00026107   -0.74030101    1.13660598
 C         -3.95810890    0.63020599    0.38166201
 C         -3.87726092    0.02391100   -1.02286804
 C         -2.43470693   -0.50441903   -1.25669396
 N         -1.61686695   -0.06612300   -0.11460400
 H         -3.60915208   -0.04105300    2.41813898
 H         -1.35134697   -0.36120200    1.92575896
 H         -4.98301697    0.93565100    0.59847999
 H         -4.58458185   -0.80033499   -1.12698305
 H         -1.98610699   -0.10110500   -2.16257191
 H         -4.09388018   -1.32577705    1.30427206
 H         -1.82851505   -1.80943298    1.00838494
 C         -3.02207088    1.84071898    0.45750201
 H         -4.12014818    0.77752799   -1.77447104
 H         -2.39746094   -1.59259796   -1.29009497
 C         -1.59653294    1.39945400    0.02662600
 H         -2.99542093    2.23289299    1.47592402
 H         -3.36771798    2.63650393   -0.20426001
 H         -0.84500003    1.65585804    0.77266800
 H         -1.31020606    1.81790400   -0.93745500
