48
wb97x-d4 ma-def2-tzvp(-f) cpcm(dmso) E: -1056.425595605918, G: -1056.0503250000002
 C          1.48368597   -0.92034900    0.23883601
 C          0.81479597    0.36185899   -0.29145500
 C          1.18412399    1.57801402    0.53239697
 O          0.68782598    1.34902799    1.84035504
 C          2.72150993    1.76600003    0.49015099
 C          3.43875289    0.42346299    0.28086799
 C          4.82150221    0.40599000    0.89620697
 O          5.55150414   -0.76260197    0.53962499
 O          2.69057202   -0.62761402    0.89959699
 O          3.11375093    2.69718194   -0.50717902
 O          1.05099297    0.62358999   -1.62680995
 O          1.66220605   -1.75619996   -0.86730999
 H          3.52762198    0.22437300   -0.79312098
 H          0.85350800   -1.40591002    0.98918998
 H         -0.35938299    0.19668400   -0.14475600
 H          0.72596300    2.46650600    0.08560600
 H          3.01943994    2.20454502    1.44675398
 C          2.07160306   -3.08261991   -0.52276498
 H          1.22430301   -0.22331899   -2.07075310
 H          5.38773918    1.26209295    0.52489501
 H          4.73076105    0.49281800    1.98586094
 H          2.85005808    2.34418511   -1.36747897
 H          0.78668499    2.16254401    2.34914589
 H          5.06326389   -1.52475500    0.87420201
 H          2.10554409   -3.65032697   -1.45115197
 H          1.34663403   -3.53402996    0.16209500
 H          3.06083488   -3.07287502   -0.05990700
 C         -3.88913989    1.39088297   -0.27709800
 C         -2.35527706    1.45751095   -0.04138600
 C         -4.31977081   -0.08026100   -0.25457299
 C         -3.79471898   -0.73181200    1.02998602
 C         -2.24213195   -0.76216900    0.96818298
 N         -1.84336996    0.08602800   -0.16342799
 H         -4.13963985    1.84322703   -1.23866999
 H         -1.85277498    2.07616997   -0.78503698
 H         -5.40764618   -0.15376000   -0.29532200
 H         -4.12148285   -0.16363600    1.90315902
 H         -1.85737801   -1.76431000    0.78014100
 H         -4.39529705    1.95586097    0.50720501
 H         -2.10479689    1.81459796    0.95651799
 C         -3.69834900   -0.79455298   -1.46114397
 H         -4.16871977   -1.75209296    1.12753797
 H         -1.78436995   -0.36026099    1.87118304
 C         -2.16847610   -0.51865399   -1.46176100
 H         -4.12866592   -0.42716399   -2.39401793
 H         -3.88219595   -1.86901700   -1.40029895
 H         -1.87706602    0.18835600   -2.23807192
 H         -1.58454001   -1.43321598   -1.56620097
