48
wb97x-d4 ma-def2-tzvp(-f) cpcm(dmso) E: -1056.431393249842, G: -1056.05506571
 C          1.50520205   -1.44367397    0.54111600
 C          0.75712800   -1.23982096   -0.77084702
 C          1.54712796   -0.42677799   -1.77541602
 O          0.68649298   -0.19340301   -2.88021994
 C          2.05920005    0.85757101   -1.14379895
 C          2.77011204    0.54910600    0.17678501
 C          3.18527198    1.79356694    0.94016099
 O          2.08416200    2.63826203    1.25857496
 O          1.89259005   -0.18459000    1.04510999
 O          2.95721698    1.44466698   -2.07880497
 O          0.24470200   -2.41571093   -1.26285303
 O          2.58561611   -2.28930593    0.28909999
 H          3.66852903   -0.04171000   -0.03378800
 H          0.84918803   -1.87549603    1.30450702
 H         -0.20005900   -0.54781598   -0.45374101
 H          2.40896010   -1.03086197   -2.08886194
 H          1.21578896    1.52703595   -0.95644498
 C          3.25696301   -2.70420194    1.48166895
 H          0.03696500   -2.28940606   -2.20192599
 H          3.71451807    1.48761904    1.84882200
 H          3.87020612    2.38123298    0.32678899
 H          2.93098497    2.40236998   -1.97683203
 H          1.22129905    0.12984701   -3.61521006
 H          1.51712406    2.16068101    1.87577999
 H          4.00296116   -3.43816495    1.18037498
 H          2.54740810   -3.16352296    2.17804599
 H          3.74981308   -1.85812902    1.96756399
 C         -3.31157398   -0.25493500    1.56420100
 C         -1.83732402   -0.61256599    1.23280501
 C         -3.81880689    0.74370098    0.51903099
 C         -3.83932209    0.05750400   -0.85066497
 C         -2.42909193   -0.52928799   -1.13434100
 N         -1.52726805   -0.03240000   -0.08349700
 H         -3.35966992    0.17614999    2.56541610
 H         -1.13853800   -0.18682501    1.95230496
 H         -4.82164001    1.08407795    0.78200197
 H         -4.57469606   -0.74832702   -0.86669099
 H         -2.03380704   -0.20621200   -2.09645700
 H         -3.92435694   -1.15830100    1.55206001
 H         -1.68374503   -1.68985105    1.17183304
 C         -2.85643601    1.93434596    0.46570301
 H         -4.10376406    0.77575999   -1.62909400
 H         -2.42154408   -1.61768496   -1.08690500
 C         -1.47632802    1.43844795   -0.04503100
 H         -2.74744391    2.37513590    1.45846498
 H         -3.23293710    2.70483994   -0.20900799
 H         -0.66372597    1.73190999    0.61788303
 H         -1.26344097    1.78515196   -1.05567205
