48
wb97x-d4 ma-def2-tzvp(-f) cpcm(dmso) E: -1056.42763511682, G: -1056.0502772900002
 C          1.30671597   -1.54458797   -0.51803100
 C          0.83544201   -0.34161901   -1.33968604
 C          1.78591299    0.83588898   -1.24647295
 O          1.17730403    1.95557797   -1.86472702
 C          2.13781595    1.11746299    0.21232399
 C          2.58485794   -0.15539800    0.93297899
 C          2.77850103    0.05321600    2.43108702
 O          3.93132997    0.83157700    2.72578907
 O          1.56225395   -1.14955497    0.80819499
 O          3.12168503    2.14662910    0.29441100
 O          0.50624698   -0.61938298   -2.64651704
 O          2.42223406   -2.07694602   -1.16324306
 H          3.52172303   -0.51966399    0.49514300
 H          0.50703698   -2.29313111   -0.44411200
 H         -0.19166000    0.00991000   -0.77652901
 H          2.70474100    0.55542499   -1.78248596
 H          1.25542200    1.51802802    0.71931797
 C          2.85034490   -3.32259607   -0.60534602
 H          0.15479299   -1.51819205   -2.72130990
 H          1.87469101    0.51038402    2.85325289
 H          2.92318892   -0.92125303    2.90112591
 H          3.91133809    1.85950398   -0.18537401
 H          1.78979802    2.69823098   -1.78929198
 H          3.85401201    1.65743804    2.22852492
 H          3.24464798   -3.18271899    0.40436801
 H          3.63673210   -3.70108604   -1.25671697
 H          2.01780891   -4.03345299   -0.57843602
 C         -3.32734609    1.92678404   -0.15058000
 C         -1.82808995    1.69731903   -0.48361501
 C         -3.90007496    0.64093298    0.45445099
 C         -3.02726793    0.21936999    1.64078200
 C         -1.61091399   -0.14016500    1.11520600
 N         -1.55342305    0.26242101   -0.30036399
 H         -3.87302494    2.19188404   -1.05838203
 H         -1.58704603    1.95764697   -1.51243198
 H         -4.92720079    0.80552697    0.78391099
 H         -2.95830011    1.03249395    2.36607599
 H         -1.41496503   -1.21085405    1.16086900
 H         -3.41579103    2.75611496    0.55315202
 H         -1.16775203    2.24556303    0.18666901
 C         -3.86037993   -0.46553701   -0.60541701
 H         -3.45480609   -0.64939702    2.14399600
 H         -0.82475102    0.39032799    1.64979601
 C         -2.41055107   -0.57581902   -1.15291405
 H         -4.53842402   -0.23706500   -1.42907596
 H         -4.16473722   -1.41821206   -0.16755800
 H         -2.32725906   -0.20105900   -2.17250800
 H         -2.03281999   -1.59796703   -1.11029804
