48
wb97x-d4 ma-def2-tzvp(-f) cpcm(dmso) E: -1056.425883245996, G: -1056.0502707100002
 C          1.51752496   -1.46452701    0.36853400
 C          0.87813997   -0.91536200   -0.90628397
 C          1.72340202    0.15129600   -1.57082295
 O          0.96283400    0.66241598   -2.65628004
 C          2.12230396    1.22125804   -0.56685698
 C          2.70885611    0.57318598    0.69382602
 C          2.92204094    1.57573104    1.81791604
 O          3.88087511    2.53871703    1.37283099
 O          1.79757798   -0.39372101    1.23050499
 O          3.06703401    2.06074500   -1.21453297
 O          0.47670501   -1.92512906   -1.74865198
 O          2.69049597   -2.16626811    0.05365200
 H          3.66088390    0.09413300    0.44218200
 H          0.81514698   -2.11126709    0.90125901
 H         -0.13455699   -0.35746700   -0.51338100
 H          2.63517404   -0.33180299   -1.94421303
 H          1.23279405    1.79784095   -0.28346100
 C          2.56116104   -3.58826089    0.12183000
 H          0.36569199   -1.55360401   -2.63804698
 H          1.96848094    2.05947590    2.05522704
 H          3.28548694    1.04920602    2.70558691
 H          3.46529198    2.61721706   -0.52643001
 H          1.56107497    1.12044597   -3.25841498
 H          3.87193298    3.28479600    1.98280704
 H          3.55267406   -3.99917293   -0.06475700
 H          1.86615098   -3.95503807   -0.63784301
 H          2.21755195   -3.89458203    1.11509204
 C         -3.06485605    1.81496596    0.41051701
 C         -1.57181895    1.45173597    0.18018200
 C         -3.88425994    0.52172703    0.46220899
 C         -3.26606297   -0.41155100    1.50854897
 C         -1.84847605   -0.82227403    1.02667797
 N         -1.51690400    0.01498500   -0.13765299
 H         -3.41918802    2.45359397   -0.40098599
 H         -1.14500594    2.00109291   -0.65774202
 H         -4.92004585    0.74445802    0.72336501
 H         -3.19779992    0.09528200    2.47299194
 H         -1.80928195   -1.86298501    0.70437700
 H         -3.15891504    2.36867690    1.34601295
 H         -0.96365499    1.61517406    1.06955004
 C         -3.82210398   -0.16144399   -0.90792501
 H         -3.87606311   -1.30704403    1.63743997
 H         -1.09240198   -0.65006900    1.79230201
 C         -2.33206511   -0.32338801   -1.31369197
 H         -4.33531380    0.43697399   -1.66234696
 H         -4.30520296   -1.13947296   -0.86365700
 H         -2.04705095    0.35579300   -2.11642003
 H         -2.09625912   -1.34649205   -1.60502803
