48
wb97x-d4 ma-def2-tzvp(-f) cpcm(dmso) E: -1056.425761726504, G: -1056.0500863900002
 C          1.51358604   -1.44103897    0.17601401
 C          0.88863498   -0.69765800   -1.00326502
 C          1.72651803    0.48117700   -1.45662701
 O          0.97389603    1.16380596   -2.44801402
 C          2.09404802    1.37467301   -0.27609900
 C          2.65227699    0.53567898    0.87987000
 C          2.83055210    1.37396097    2.13298702
 O          3.49225903    0.66940200    3.17859793
 O          1.74670601   -0.52669901    1.21167099
 O          3.00826311    2.38195300   -0.68601602
 O          0.52443802   -1.55909097   -2.01317906
 O          2.71123290   -2.05622292   -0.22139899
 H          3.61939692    0.11186200    0.58114100
 H          0.81540298   -2.18373394    0.57226402
 H         -0.13731600   -0.22914600   -0.55085999
 H          2.65087008    0.07849200   -1.89337099
 H          1.20066404    1.90640295    0.06022700
 C          2.60942006   -3.46767807   -0.42180401
 H          0.41965300   -1.04688203   -2.83005905
 H          3.37172198    2.28774309    1.87305605
 H          1.84534895    1.65036500    2.51695299
 H          3.82720709    1.95754099   -0.97504902
 H          1.56256402    1.76914096   -2.91432190
 H          4.41815805    0.56348598    2.93032503
 H          1.95317101   -3.69793892   -1.26493394
 H          2.23304296   -3.95699811    0.48249501
 H          3.61611104   -3.82392812   -0.63772398
 C         -3.00941896    1.56003296    1.08319199
 C         -1.55989099    1.35975504    0.56147897
 C         -3.91561699    0.51229799    0.42796600
 C         -3.49535608   -0.87820703    0.91577798
 C         -1.97055900   -1.04449606    0.67667902
 N         -1.53454006    0.07985200   -0.16529900
 H         -3.34240103    2.56892800    0.83446902
 H         -1.26473403    2.14061904   -0.13870101
 H         -4.95819092    0.70230401    0.68752003
 H         -3.70527291   -0.99531603    1.98005199
 H         -1.73759699   -1.97142696    0.15223899
 H         -3.03184199    1.45220697    2.16939998
 H         -0.83421099    1.30354095    1.37235606
 C         -3.72935009    0.58001900   -1.09170198
 H         -4.04391384   -1.65091300    0.37359300
 H         -1.40175796   -0.99992198    1.60517001
 C         -2.27837801    0.14265400   -1.43272901
 H         -3.90411496    1.59706700   -1.44813502
 H         -4.43208313   -0.08336600   -1.59832704
 H         -1.77420497    0.85443902   -2.08481908
 H         -2.24439406   -0.84873903   -1.88306105
