48
wb97x-d4 ma-def2-tzvp(-f) cpcm(dmso) E: -1056.425562413382, G: -1056.04968319
 C          1.50215602    0.07866300    0.93936998
 C          0.78983998   -0.23538700   -0.38997599
 C          1.20316994    0.70697099   -1.50129294
 O          0.79198903    2.00419307   -1.10628796
 C          2.73302293    0.59207797   -1.71716201
 C          3.44851494    0.18392700   -0.41986200
 C          4.85876989    0.73024100   -0.34717500
 O          5.57305479    0.21412399    0.76992702
 O          2.74317002    0.70125401    0.71302003
 O          3.05391502   -0.30853701   -2.76593995
 O          0.92807001   -1.54000401   -0.81821102
 O          1.61817801   -1.13830900    1.61635196
 H          3.48799109   -0.90961701   -0.35685900
 H          0.92455697    0.79404598    1.53134000
 H         -0.37588799   -0.02966300   -0.19422300
 H          0.71131402    0.40135601   -2.43085694
 H          3.08614206    1.57347405   -2.04594803
 C          2.07412505   -1.00667298    2.96568489
 H          1.09347105   -2.09446597   -0.03684500
 H          5.40507889    0.43065301   -1.24336004
 H          4.81744909    1.82577503   -0.31293401
 H          2.75882101   -1.19178700   -2.50707793
 H          0.96186000    2.61220503   -1.83561206
 H          5.10684919    0.49245399    1.56778598
 H          1.41344404   -0.33476800    3.52264905
 H          3.09683394   -0.62418300    2.99124193
 H          2.04282403   -2.00280190    3.40409899
 C         -3.71432996   -1.49315298    0.47917399
 C         -2.17143106   -1.32624495    0.53765702
 C         -4.33033895   -0.14882199    0.07567100
 C         -3.90766406    0.17827900   -1.36076200
 C         -2.36096692    0.07206200   -1.45573902
 N         -1.85222197   -0.03177600   -0.08056400
 H         -4.07720613   -1.80814302    1.45880198
 H         -1.79585302   -1.30284405    1.56051505
 H         -5.41811323   -0.19816600    0.14507100
 H         -4.35903788   -0.52073300   -2.06657004
 H         -1.91643906    0.95360899   -1.91664100
 H         -3.97994399   -2.26421094   -0.24667200
 H         -1.65317404   -2.10628200   -0.02031500
 C         -3.79179502    0.94147199    1.00993001
 H         -4.22802210    1.18713903   -1.62822104
 H         -2.04128289   -0.82006103   -1.99405003
 C         -2.26790500    1.10549402    0.75352597
 H         -3.96634412    0.66520703    2.05176401
 H         -4.28997087    1.89392602    0.82212800
 H         -1.69171298    1.08072901    1.67806804
 H         -2.03496408    2.01730299    0.20538200
