48
wb97x-d4 ma-def2-tzvp(-f) cpcm(dmso) E: -1056.425798190842, G: -1056.04964233
 C          1.45105302   -0.70774102    0.62141800
 C          0.80079800    0.07258100   -0.53833097
 C          1.34418094    1.48960102   -0.62964702
 O          1.04692101    2.21776009    0.54950398
 C          2.86005306    1.41556001   -0.91381001
 C          3.49229598    0.21860600   -0.17766300
 C          4.89243507    0.50439298    0.33150101
 O          4.91766691    1.56626701    1.27903795
 O          2.69349194   -0.12981100    0.96411002
 O          3.14762211    1.35864401   -2.30205297
 O          0.89640301   -0.54728198   -1.76891100
 O          1.56367195   -2.03245401    0.20632200
 H          3.54317689   -0.63681102   -0.86021000
 H          0.84547800   -0.63638997    1.52972400
 H         -0.36009401    0.16512600   -0.25675601
 H          0.86201203    2.01216102   -1.45753896
 H          3.29553294    2.34843898   -0.55125898
 C          1.86488402   -2.94916701    1.26340306
 H          0.98267502   -1.50383401   -1.61755502
 H          5.31310081   -0.40966201    0.76344401
 H          5.51680517    0.81187999   -0.50980598
 H          2.73170090    0.56260598   -2.66016006
 H          1.60558999    1.88295698    1.26390600
 H          4.43209124    1.27522504    2.06034303
 H          1.87285900   -3.94331408    0.81981099
 H          1.09453595   -2.89426708    2.03880811
 H          2.84362507   -2.72953391    1.69537604
 C         -3.74707890    0.56368899    1.31445396
 C         -2.19675493    0.46886000    1.26155400
 C         -4.31715584   -0.00115300    0.00790600
 C         -3.73370504   -1.39959204   -0.22238301
 C         -2.20638108   -1.25897896   -0.46612400
 N         -1.83752096    0.12093100   -0.12078700
 H         -4.05120802    1.60469604    1.44001102
 H         -1.71588099    1.41407096    1.50952196
 H         -5.40553617   -0.05291600    0.06521000
 H         -3.91404390   -2.03283405    0.64846700
 H         -1.94039798   -1.41911995   -1.51071298
 H         -4.11167192   -0.00387900    2.17212296
 H         -1.80942702   -0.31637499    1.91038704
 C         -3.89322805    0.90788800   -1.15219295
 H         -4.19352388   -1.87389600   -1.09072006
 H         -1.62533498   -1.93280995    0.16344000
 C         -2.35204697    1.09599805   -1.09231400
 H         -4.37544107    1.88378298   -1.07714295
 H         -4.17747688    0.45996600   -2.10640097
 H         -2.07017112    2.08916903   -0.74348402
 H         -1.87658501    0.90096301   -2.05381608
