48
wb97x-d4 ma-def2-tzvp(-f) cpcm(dmso) E: -1056.425243118371, G: -1056.04953746
 C          1.46325505   -0.09347200    0.93071097
 C          0.81980401   -0.35311300   -0.44393900
 C          1.27631700    0.64551997   -1.48500597
 O          0.84038800    1.91927898   -1.04031801
 C          2.81323195    0.54860097   -1.63196695
 C          3.48026109    0.09916600   -0.32054701
 C          4.88035679    0.65842402   -0.14669600
 O          4.89643621    2.08123112   -0.10207100
 O          2.71178198    0.54110098    0.80266201
 O          3.18949008   -0.31565800   -2.69421792
 O          0.99915802   -1.63541996   -0.92581499
 O          1.54860902   -1.33914304    1.55961096
 H          3.55081797   -0.99506700   -0.31249201
 H          0.85220301    0.59281600    1.52354097
 H         -0.34755501   -0.16995101   -0.28746599
 H          0.82819802    0.38914800   -2.45078397
 H          3.17472410    1.54124105   -1.90822804
 C          1.91729498   -1.26623499    2.93945289
 H          1.12024605   -2.22504711   -0.16283099
 H          5.32385778    0.23745200    0.76195002
 H          5.48932505    0.35975301   -1.00214803
 H          2.87966490   -1.20627606   -2.48215389
 H          1.04151905    2.56565809   -1.72734594
 H          4.40078020    2.35605788    0.67871898
 H          2.93161106   -0.87631899    3.04764605
 H          1.87002003   -2.28180790    3.32913303
 H          1.21507001   -0.62678099    3.48375702
 C         -3.75111294   -1.37488997    0.60543001
 C         -2.23597693   -1.44188797    0.26688600
 C         -4.29480124   -0.02160300    0.13167100
 C         -3.91627002    0.17398600   -1.34151602
 C         -2.36935592    0.29469600   -1.44265902
 N         -1.82741702   -0.08967700   -0.13296400
 H         -3.89678502   -1.48494804    1.68173802
 H         -1.63374305   -1.73812401    1.12590098
 H         -5.37939310    0.00845100    0.24666400
 H         -4.26382780   -0.67253298   -1.93697298
 H         -2.04672790    1.31473601   -1.64731097
 H         -4.26623678   -2.19640899    0.10534300
 H         -2.02918911   -2.10963798   -0.56892401
 C         -3.64522791    1.09261703    0.96040100
 H         -4.37141323    1.08133399   -1.74158394
 H         -1.95245504   -0.37638900   -2.19373393
 C         -2.10333395    0.91130102    0.90676302
 H         -3.97483993    1.04633105    1.99942994
 H         -3.91902089    2.07009101    0.55861199
 H         -1.70266998    0.52935398    1.84549403
 H         -1.58706605    1.83204305    0.63817400
