48
wb97x-d4 ma-def2-tzvp(-f) cpcm(dmso) E: -1056.424749920159, G: -1056.04951099
 C          1.49818397   -0.16120900    0.99189800
 C          0.81209397   -0.37465000   -0.37092400
 C          1.26228905    0.63727701   -1.40579796
 O          0.79565698    1.89679694   -0.94354498
 C          2.80256295    0.59725600   -1.56457198
 C          3.48015904    0.02773100   -0.31669399
 C          4.91191816    0.50180298   -0.14534301
 O          5.00557613    1.91466606    0.00374300
 O          2.75994992    0.44329500    0.84735203
 O          3.20541406   -0.22628801   -2.64996791
 O          0.92031598   -1.65592301   -0.87101799
 O          1.56852901   -1.42022300    1.59616494
 H          3.48831701   -1.06558394   -0.38738099
 H          0.91778600    0.52663898    1.61351502
 H         -0.33592999   -0.14631300   -0.18532400
 H          0.81203598    0.38075301   -2.37075591
 H          3.13662791    1.62802899   -1.72106397
 C          1.94709802   -1.37776005    2.97420001
 H          1.03469706   -2.25770593   -0.11690200
 H          5.35467482   -0.00752600    0.71728897
 H          5.48241711    0.23699300   -1.03730595
 H          3.04607201    0.25246501   -3.47176003
 H          1.00707603    2.56255794   -1.60861504
 H          4.54687405    2.15482306    0.81787997
 H          1.25704098   -0.73956400    3.53534102
 H          2.96722698   -1.00308895    3.08284497
 H          1.88955498   -2.39962411    3.34579492
 C         -3.77732110   -1.27610803    0.74617600
 C         -2.24185801   -1.34529805    0.51134300
 C         -4.31988382   -0.02270300    0.04985000
 C         -3.87422490   -0.04090200   -1.41736102
 C         -2.32459307    0.08397600   -1.46495104
 N         -1.84341002   -0.06630100   -0.08717000
 H         -3.98628402   -1.23477006    1.81684601
 H         -1.68793595   -1.47134495    1.44157696
 H         -5.40925407   -0.00305700    0.10946100
 H         -4.18741894   -0.97080398   -1.89575398
 H         -2.00021696    1.06001604   -1.82364094
 H         -4.24320889   -2.17591691    0.34171799
 H         -1.96712995   -2.13712311   -0.18500800
 C         -3.73305106    1.21833706    0.73199999
 H         -4.31683111    0.79134101   -1.96686196
 H         -1.86761200   -0.69727999   -2.07255006
 C         -2.18375802    1.08594406    0.75656098
 H         -4.10081387    1.30771804    1.75540197
 H         -4.01958513    2.12003803    0.18740000
 H         -1.80466700    0.88530099    1.75812304
 H         -1.68516004    1.96331203    0.34778699
