48
wb97x-d4 ma-def2-tzvp(-f) cpcm(dmso) E: -1056.426286440953, G: -1056.04949693
 C          1.50982594    0.10854000    0.90707898
 C          0.76442099   -0.30851701   -0.37687299
 C          1.17668903    0.55424303   -1.56101894
 O          0.85055202    1.91357195   -1.33121598
 C          2.68444800    0.33873099   -1.82182300
 C          3.43111110    0.14538001   -0.48960501
 C          4.81675720    0.75315100   -0.51487201
 O          5.56697798    0.43165901    0.64990401
 O          2.70377707    0.78801602    0.57032502
 O          2.93061996   -0.74489099   -2.70232892
 O          0.88967103   -1.64405096   -0.70481402
 O          1.73073304   -1.05148399    1.64359105
 H          3.51238394   -0.92425102   -0.26977500
 H          0.92627901    0.83145702    1.48506105
 H         -0.39934999   -0.08192800   -0.18268600
 H          0.62757403    0.23981100   -2.45009208
 H          3.04887390    1.23355496   -2.33344293
 C          2.23456907   -0.81530499    2.96225500
 H          1.06632996   -2.13983703    0.11259000
 H          5.36300707    0.34905601   -1.36946106
 H          4.73053885    1.83977306   -0.63882601
 H          2.56984305   -1.54555905   -2.29747796
 H          1.44287097    2.25846505   -0.64958799
 H          5.09964085    0.79983097    1.40980995
 H          3.23740411   -0.38523000    2.91827106
 H          2.26970005   -1.78327000    3.45903802
 H          1.56520796   -0.14174500    3.50626802
 C         -3.77507091   -1.27007699    0.81133401
 C         -2.24380398   -1.31572402    0.55334401
 C         -4.35589695   -0.05525200    0.07851900
 C         -3.91935301   -0.11134600   -1.39040506
 C         -2.37749600    0.06752200   -1.45319402
 N         -1.87383795   -0.04034800   -0.07633400
 H         -3.96928906   -1.19344294    1.88293600
 H         -1.67310703   -1.41573501    1.47658598
 H         -5.44490004   -0.06147400    0.14652599
 H         -4.20252705   -1.06883001   -1.83177698
 H         -2.09104705    1.04807496   -1.83183396
 H         -4.22777414   -2.19391108    0.44809201
 H         -1.96594799   -2.11514091   -0.13275300
 C         -3.79560709    1.22224498    0.71403199
 H         -4.39513111    0.68346298   -1.96697104
 H         -1.89718604   -0.70693499   -2.05173111
 C         -2.24549007    1.12039995    0.74675798
 H         -4.16789007    1.34348595    1.73256302
 H         -4.09893417    2.09662700    0.13482600
 H         -1.86599004    0.94483203    1.75289297
 H         -1.76419199    2.00239396    0.32629499
