48
wb97x-d4 ma-def2-tzvp(-f) cpcm(dmso) E: -1056.425028322924, G: -1056.0494390200001
 C          1.47783303   -0.67759103    0.77406001
 C          0.81790102   -0.01357600   -0.45009899
 C          1.24591804    1.43259001   -0.62014002
 O          0.72011799    2.12591696    0.50202698
 C          2.79028010    1.53650105   -0.71210200
 C          3.46021700    0.31604600   -0.08243400
 C          4.87306023    0.60068703    0.38066500
 O          5.52948189   -0.57855302    0.83207798
 O          2.71529889   -0.07873200    1.07441294
 O          3.24222207    1.60505199   -2.05578804
 O          0.97644198   -0.70679599   -1.63120699
 O          1.59678900   -2.03658795    0.46773300
 H          3.47871804   -0.50129199   -0.81064600
 H          0.86453301   -0.53997397    1.66899705
 H         -0.34475499    0.03557300   -0.20410000
 H          0.82390702    1.81682706   -1.55493903
 H          3.08342004    2.43990302   -0.16320300
 C          1.97601104   -2.84832907    1.58213401
 H          1.11027503   -1.64295805   -1.40760303
 H          5.45389986    0.99010199   -0.45688301
 H          4.84544802    1.35988700    1.17200303
 H          3.04084396    2.48292089   -2.40202498
 H          0.88986999    3.06835198    0.38642499
 H          5.02172089   -0.92579299    1.57572806
 H          1.96708405   -3.88007808    1.23439300
 H          1.25787997   -2.72619510    2.39940000
 H          2.97803712   -2.58505392    1.92818105
 C         -3.82007408    0.22182301    1.25291896
 C         -2.28023791    0.42634299    1.18998599
 C         -4.33659315   -0.02710100   -0.16905300
 C         -3.77986312   -1.36486006   -0.67044502
 C         -2.23779011   -1.35780001   -0.47665900
 N         -1.85341799    0.02130000   -0.15589300
 H         -4.28048801    1.11276698    1.68280196
 H         -1.99458599    1.46801996    1.32605398
 H         -5.42752504   -0.04865500   -0.17453501
 H         -4.20566177   -2.19792891   -0.10902700
 H         -1.70914996   -1.65730906   -1.38179898
 H         -4.05691099   -0.62875700    1.89507902
 H         -1.75362396   -0.19272800    1.91589606
 C         -3.82643008    1.09229195   -1.08348703
 H         -4.02352619   -1.50380599   -1.72549796
 H         -1.92371702   -1.98985803    0.35349599
 C         -2.28014398    0.97464198   -1.18820906
 H         -4.09765005    2.06760812   -0.67458397
 H         -4.26024008    1.00734997   -2.08103204
 H         -1.78403294    1.92611301   -0.99960101
 H         -1.96078503    0.58169699   -2.15348005
