48
wb97x-d4 ma-def2-tzvp(-f) cpcm(dmso) E: -1056.425233681406, G: -1056.0493466
 C          1.67611396   -0.79992300    0.22864000
 C          0.89446700   -0.18928100   -0.92706501
 C          1.35459995    1.22068000   -1.25308800
 O          0.93114197    2.03584409   -0.17260300
 C          2.88718200    1.24426496   -1.42545998
 C          3.62053394    0.50954098   -0.29741201
 C          3.73811698    1.28381097    1.01166797
 O          4.56642580    0.58545500    1.93776405
 O          3.06004405   -0.79923099   -0.09075400
 O          3.24369311    0.70858997   -2.69286203
 O          0.88627702   -0.97603297   -2.06150103
 O          1.25640202   -2.11396003    0.35939500
 H          4.63405704    0.30927500   -0.65086699
 H          1.49214900   -0.23381400    1.14938796
 H         -0.23358899   -0.08071400   -0.51961398
 H          0.89645898    1.53669298   -2.19565296
 H          3.20873308    2.28910089   -1.43737805
 C          1.68296301   -2.73961306    1.57476699
 H          0.89457601   -1.90791297   -1.79004002
 H          4.22937202    2.23696399    0.80610198
 H          2.76202106    1.49676299    1.45254898
 H          2.92617393   -0.20311800   -2.73896694
 H          1.13332701    2.95496202   -0.38519901
 H          4.16691113   -0.27845001    2.09613204
 H          2.77107096   -2.82820010    1.60503495
 H          1.23250997   -3.73058200    1.58874905
 H          1.33247900   -2.16169405    2.43550396
 C         -3.24846196    0.32345301    1.64040101
 C         -1.75094295    0.40197799    1.23587406
 C         -4.08405209    0.07318700    0.38073900
 C         -3.72535396   -1.30323601   -0.19114000
 C         -2.18540192   -1.37261903   -0.38563001
 N         -1.66001701   -0.01666900   -0.17186400
 H         -3.54159093    1.26042998    2.11663008
 H         -1.35577703    1.41384602    1.30259299
 H         -5.14717293    0.11272800    0.62287802
 H         -4.03575897   -2.09776092    0.48905501
 H         -1.91277599   -1.68726301   -1.39278197
 H         -3.39754009   -0.48497599    2.35876799
 H         -1.12960100   -0.26841199    1.82922804
 C         -3.74299908    1.14405000   -0.66140199
 H         -4.22898293   -1.45718205   -1.14755201
 H         -1.70616603   -2.02820802    0.34035599
 C         -2.25891089    0.96583903   -1.08791900
 H         -3.89114404    2.14104104   -0.24227600
 H         -4.38326311    1.04538596   -1.53939295
 H         -1.69331098    1.89228594   -1.00382698
 H         -2.16500902    0.57268399   -2.09996605
