48
wb97x-d4 ma-def2-tzvp(-f) cpcm(dmso) E: -1056.425233866541, G: -1056.0493258400002
 C          1.50823295   -0.71568698    0.72753400
 C          0.80759698   -0.08470600   -0.49169800
 C          1.25295103    1.34139001   -0.73356700
 O          0.86162299    2.08595109    0.40765601
 C          2.78086805    1.35615897   -0.97279400
 C          3.48232102    0.20976999   -0.22528000
 C          4.89670420    0.55872798    0.19977801
 O          4.93588781    1.65660095    1.10538495
 O          2.75914192   -0.11814600    0.96495700
 O          3.09947801    1.30735302   -2.35597992
 O          0.93453401   -0.80879402   -1.66030598
 O          1.60547698   -2.08300900    0.45211601
 H          3.53118801   -0.66713798   -0.88170099
 H          0.93018597   -0.54795903    1.64038205
 H         -0.35476300   -0.02817100   -0.20801599
 H          0.76853502    1.72109997   -1.63921201
 H          3.15433002    2.31609106   -0.61052603
 C          2.03699398   -2.86972809    1.56513703
 H          1.07083404   -1.74051499   -1.41861999
 H          5.36621094   -0.32543999    0.64408898
 H          5.47002983    0.85173398   -0.68181700
 H          2.76765490    0.47224799   -2.71208906
 H          1.04271102    3.01828504    0.23933500
 H          4.45916510    1.39472401    1.90241504
 H          2.00413990   -3.90944004    1.24359500
 H          1.36274505   -2.72237992    2.41470909
 H          3.05665708   -2.60462904    1.85234404
 C         -3.72416091    0.30069000    1.41106796
 C         -2.18232799    0.43593001    1.27269399
 C         -4.32080221    0.06381200    0.01908100
 C         -3.83996797   -1.29502499   -0.50358403
 C         -2.29067612   -1.34144795   -0.39882401
 N         -1.83760405    0.02224500   -0.09495600
 H         -4.12509394    1.21408498    1.85326600
 H         -1.84328306    1.46270096    1.40111804
 H         -5.41062689    0.08199500    0.06957200
 H         -4.26249504   -2.10956597    0.08674200
 H         -1.82467699   -1.65414095   -1.33351898
 H         -3.96646810   -0.53358001    2.07233095
 H         -1.64974403   -0.21135600    1.96874702
 C         -3.81888294    1.16046798   -0.92775500
 H         -4.14829683   -1.43095398   -1.54205501
 H         -1.95125699   -1.98820496    0.40980801
 C         -2.28318191    0.99629700   -1.10085905
 H         -4.04290819    2.14696288   -0.51718801
 H         -4.30022287    1.08086097   -1.90373695
 H         -1.75056398    1.93080401   -0.92768699
 H         -2.01818991    0.60303301   -2.08208799
