48
wb97x-d4 ma-def2-tzvp(-f) cpcm(dmso) E: -1056.42513798576, G: -1056.04908376
 C          1.66949701   -0.75437599    0.21196000
 C          0.90541798   -0.20221700   -0.98411399
 C          1.34219801    1.20603895   -1.34993899
 O          0.85957903    2.04997396   -0.31684801
 C          2.87932706    1.26595902   -1.47334898
 C          3.59216809    0.59001702   -0.29663700
 C          3.63452005    1.41305602    0.98788399
 O          4.44441986    0.77767402    1.97319305
 O          3.06087995   -0.72786301   -0.07126500
 O          3.29266310    0.69900399   -2.70973897
 O          0.94446898   -1.02948904   -2.08787203
 O          1.27739406   -2.07268310    0.37768099
 H          4.62406778    0.40933800   -0.60461199
 H          1.45050001   -0.16315900    1.10849595
 H         -0.23995399   -0.09943800   -0.61432499
 H          0.90852100    1.47280598   -2.31885910
 H          3.17294097    2.31845307   -1.51137805
 C          1.69769394   -2.64924693    1.61940205
 H          0.96210003   -1.95056796   -1.78216398
 H          4.10542202    2.37258911    0.76425600
 H          2.63585997    1.61356795    1.38105595
 H          3.00460196   -0.22335400   -2.73449898
 H          1.04746699    2.96558189   -0.55660403
 H          4.04486179   -0.07619300    2.17925310
 H          2.78632903   -2.72419500    1.66381299
 H          1.25774395   -3.64404988    1.66483295
 H          1.33209300   -2.04427791    2.45515490
 C         -3.68454409   -1.38898802   -0.11422400
 C         -2.15094805   -1.43576801   -0.35700199
 C         -4.04746008   -0.01226200    0.45366701
 C         -3.76547408    1.05154896   -0.61333698
 C         -2.29868698    0.88863999   -1.09809601
 N         -1.64393902   -0.06578400   -0.18904200
 H         -3.96049809   -2.18108702    0.58363700
 H         -1.63691199   -2.06625295    0.36719301
 H         -5.10131121    0.01039100    0.73577398
 H         -4.44003677    0.93539101   -1.46308506
 H         -1.74447703    1.82511902   -1.05678105
 H         -4.21576309   -1.56138504   -1.05234504
 H         -1.90387595   -1.76796699   -1.36532199
 C         -3.16932607    0.27049401    1.67697203
 H         -3.91018391    2.05080795   -0.19799000
 H         -2.24137092    0.47496900   -2.10479903
 C         -1.69086301    0.37688601    1.21368003
 H         -3.27286100   -0.53249598    2.40941691
 H         -3.46353793    1.20657206    2.15432000
 H         -1.03463995   -0.26968399    1.79535604
 H         -1.31606996    1.39790499    1.24722898
