48
wb97x-d4 ma-def2-tzvp(-f) cpcm(dmso) E: -1056.423593325469, G: -1056.0489083700002
 C          1.49683106   -0.72816998    0.56198299
 C          0.79911798    0.12542801   -0.51219100
 C          1.21451902    1.58250904   -0.45716801
 O          0.71645999    2.08006692    0.77639502
 C          2.74966908    1.71211505   -0.57299501
 C          3.44871092    0.39695600   -0.20426500
 C          4.89403820    0.57662100    0.22229600
 O          5.03037977    1.41543901    1.36469698
 O          2.75883889   -0.20441701    0.89808398
 O          3.07390404    2.09033108   -1.90699995
 O          0.92521697   -0.35768101   -1.79741502
 O          1.57613504   -2.02357292    0.04105900
 H          3.43202305   -0.27043399   -1.07243001
 H          0.92016798   -0.72468400    1.49133396
 H         -0.35640699    0.10654300   -0.22039001
 H          0.76485300    2.10900903   -1.30491304
 H          3.05778694    2.49342489    0.12766500
 C          1.90081298   -3.01775098    1.01601303
 H          1.05051303   -1.31963003   -1.74021804
 H          5.33225489   -0.40924999    0.41128999
 H          5.45293999    1.05019200   -0.58768398
 H          3.93145204    2.53028393   -1.90192401
 H          0.88239503    3.02948594    0.81122100
 H          4.57743502    0.98507702    2.09992290
 H          1.15590596   -3.01481700    1.81817698
 H          2.89455795   -2.83953500    1.43306899
 H          1.88498199   -3.97737908    0.50175899
 C         -3.92906189    0.69064701   -1.13206601
 C         -2.40091705    0.96283698   -1.04244399
 C         -4.31334877   -0.29355100   -0.02046500
 C         -3.79385710    0.24379499    1.31847000
 C         -2.23906803    0.24605700    1.28422201
 N         -1.84638000   -0.02205100   -0.10549200
 H         -4.17643976    0.27217200   -2.10959005
 H         -1.90390503    0.83615202   -2.00438595
 H         -5.39756012   -0.41048399    0.01773800
 H         -4.16231298    1.25772405    1.48675704
 H         -1.81152201   -0.54026198    1.90567696
 H         -4.46643591    1.63353205   -1.01911604
 H         -2.18084788    1.95436704   -0.64761698
 C         -3.64684606   -1.64346898   -0.30553299
 H         -4.13297892   -0.38340601    2.14446712
 H         -1.81951702    1.20740294    1.57556105
 C         -2.12564397   -1.40482605   -0.51332301
 H         -4.06504107   -2.10060191   -1.20361102
 H         -3.80397606   -2.32700610    0.53105700
 H         -1.83182204   -1.50658298   -1.55784905
 H         -1.51801705   -2.06860805    0.10116900
