48
wb97x-d4 ma-def2-tzvp(-f) cpcm(dmso) E: -1056.429951241705, G: -1056.0549189800001
 C          1.44642496   -1.58927906    0.36854100
 C          0.75101298   -1.20252705   -0.92930400
 C          1.57140303   -0.25166699   -1.77797794
 O          0.74455601    0.13369900   -2.86644292
 C          2.04629111    0.93049699   -0.94844598
 C          2.70657802    0.43593401    0.34346300
 C          3.10845804    1.56129599    1.27062702
 O          1.97125995    2.37562704    1.55255103
 O          1.80117798   -0.41433200    1.06247199
 O          2.97233200    1.65530205   -1.74905503
 O          0.26884300   -2.29658890   -1.60589099
 O          2.54144311   -2.39168501    0.04595900
 H          3.61261296   -0.12323900    0.08495000
 H          0.75993800   -2.12513494    1.03318906
 H         -0.21689400   -0.55813497   -0.55554599
 H          2.44886398   -0.80029202   -2.14464998
 H          1.19056904    1.56082296   -0.69861102
 C          3.16284394   -2.97093010    1.19576502
 H          0.07723700   -2.02844000   -2.51850605
 H          3.51357388    1.12649500    2.19049191
 H          3.89690495    2.14718699    0.78676897
 H          2.93127298    2.58647609   -1.50474203
 H          1.30130398    0.54289800   -3.53959489
 H          2.25763988    3.09550190    2.12523389
 H          3.92932010   -3.65124893    0.82724500
 H          2.42726111   -3.52823901    1.78552306
 H          3.62427807   -2.20149493    1.82023394
 C         -2.97009611    0.41027099    1.77135706
 C         -1.64544106   -0.25435701    1.30934703
 C         -3.79729891    0.75965297    0.52952999
 C         -3.91109109   -0.48877299   -0.35276401
 C         -2.50068307   -0.82929701   -0.90493000
 N         -1.52971804   -0.03138700   -0.14165699
 H         -2.75452304    1.31218898    2.34791088
 H         -0.77187800    0.18410300    1.78971696
 H         -4.78970385    1.10551596    0.82274997
 H         -4.29767179   -1.32844603    0.22831300
 H         -2.39307499   -0.55890697   -1.95527399
 H         -3.51195693   -0.28342700    2.41610003
 H         -1.64915097   -1.33126998    1.47739398
 C         -3.06670308    1.85256100   -0.25883201
 H         -4.58856916   -0.31358001   -1.18990195
 H         -2.25244808   -1.88233995   -0.77705097
 C         -1.59925401    1.39962900   -0.48537099
 H         -3.06723404    2.79506803    0.29103401
 H         -3.55910707    2.01895595   -1.21914005
 H         -0.90658700    1.92810297    0.16840599
 H         -1.28431594    1.51723397   -1.52118802
