48
wb97x-d4 ma-def2-tzvp(-f) cpcm(dmso) E: -1056.42452976351, G: -1056.0488716500001
 C          1.67623401   -0.87321800   -0.19393501
 C          0.90812802    0.31618199   -0.75809699
 C          1.35310102    1.63436604   -0.15021400
 O          0.89987701    1.62328506    1.19395006
 C          2.88802791    1.75597203   -0.24075300
 C          3.60027909    0.48948500    0.24971600
 C          3.65700006    0.34970999    1.77042603
 O          4.44015598   -0.77164698    2.16844893
 O          3.06349206   -0.66974998   -0.40364799
 O          3.27610397    2.07435012   -1.57063997
 O          0.94046003    0.38035101   -2.13787103
 O          1.28317201   -1.99162197   -0.91311198
 H          4.62963676    0.54537702   -0.11464800
 H          1.45835495   -0.99590999    0.87353599
 H         -0.23479900    0.16586301   -0.40849000
 H          0.90575600    2.45770407   -0.71626198
 H          3.19779706    2.60305691    0.37676501
 C          1.74005699   -3.22712994   -0.35170299
 H          0.95616698   -0.52591699   -2.48553109
 H          4.06862593    1.28024697    2.17785597
 H          2.67054296    0.20524400    2.20601511
 H          2.93496203    1.38786197   -2.15978909
 H          1.07311499    2.48928094    1.58231902
 H          5.35087490   -0.61939102    1.88888001
 H          1.29564595   -4.02210808   -0.94827002
 H          1.40525603   -3.31207705    0.68694299
 H          2.82889295   -3.29481196   -0.39660299
 C         -3.73911691    1.38113701   -0.35581401
 C         -2.18860888    1.46118200   -0.34356299
 C         -4.15489388   -0.02978700    0.07600300
 C         -3.45661807   -0.37041599    1.39821696
 C         -1.92690206   -0.45921400    1.14205396
 N         -1.68666804    0.08635900   -0.20218401
 H         -4.11732388    1.59590304   -1.35729694
 H         -1.79056704    1.87377501   -1.27094901
 H         -5.23779106   -0.08102600    0.19961600
 H         -3.66523099    0.39931399    2.14405298
 H         -1.56626296   -1.48754597    1.14944506
 H         -4.14108515    2.13096905    0.32745299
 H         -1.81063294    2.03655601    0.50002700
 C         -3.69772100   -1.02815795   -0.99357003
 H         -3.81063700   -1.32636201    1.78741503
 H         -1.35221303    0.13141400    1.85360098
 C         -2.18503189   -0.80026001   -1.26392102
 H         -4.25368881   -0.88534099   -1.92148101
 H         -3.86408591   -2.05119491   -0.65036899
 H         -2.00722504   -0.30435401   -2.21784592
 H         -1.61460698   -1.72770405   -1.22617900
