48
wb97x-d4 ma-def2-tzvp(-f) cpcm(dmso) E: -1056.424079042757, G: -1056.0487956700001
 C          1.46493900   -0.99029499    0.25592101
 C          0.81083202    0.28783399   -0.30381599
 C          1.19087899    1.51853001    0.49570099
 O          0.62722802    1.33155596    1.78529096
 C          2.73250008    1.67756999    0.53956401
 C          3.43313789    0.33600101    0.30656099
 C          4.82494211    0.31947300    0.90776199
 O          5.56564093   -0.84458399    0.55641299
 O          2.67078090   -0.70469302    0.92076200
 O          3.20844793    2.56532192   -0.46053299
 O          1.02718198    0.50194001   -1.64911997
 O          1.63688004   -1.84862697   -0.83565801
 H          3.50441790    0.15945300   -0.77288198
 H          0.82344300   -1.45596194    1.00952494
 H         -0.35558301    0.14494200   -0.13721900
 H          0.76972902    2.40301991    0.00603000
 H          2.98634696    2.05478501    1.53794003
 C          2.01529789   -3.17762899   -0.47005400
 H          1.17809296   -0.36395001   -2.06332302
 H          5.35015202    1.22844100    0.59690499
 H          4.74380684    0.32152000    1.99753201
 H          2.99266195    3.46756697   -0.19678600
 H          0.75499099    2.14078093    2.29388309
 H          5.78036404   -0.79242700   -0.38241300
 H          3.00645709   -3.18424511   -0.01159700
 H          2.03088689   -3.76229811   -1.38850105
 H          1.28315198   -3.60043693    0.22558200
 C         -3.87415600    1.41677999   -0.37205601
 C         -2.34207106    1.45713794   -0.11202700
 C         -4.34204388   -0.04107500   -0.28584200
 C         -3.85208106   -0.64117402    1.03708100
 C         -2.29953599   -0.71621603    0.99988198
 N         -1.86574101    0.06967700   -0.16249999
 H         -4.09661293    1.82700002   -1.35898495
 H         -1.81102896    2.02798295   -0.87392199
 H         -5.43075800   -0.09017800   -0.34001201
 H         -4.17440414   -0.02131900    1.87609601
 H         -1.94002903   -1.73550105    0.86165100
 H         -4.37857914    2.03204799    0.37457600
 H         -2.09983706    1.85262895    0.87309903
 C         -3.72052097   -0.82575500   -1.44692802
 H         -4.25466204   -1.64511096    1.18093503
 H         -1.84393597   -0.28720501    1.89112699
 C         -2.18450809   -0.58666301   -1.43568301
 H         -4.12751389   -0.49205500   -2.40259600
 H         -3.93137193   -1.89152706   -1.33928394
 H         -1.86539900    0.07613400   -2.23928189
 H         -1.62281799   -1.51919699   -1.48879802
