48
wb97x-d4 ma-def2-tzvp(-f) cpcm(dmso) E: -1056.424210868569, G: -1056.04879351
 C          1.46297503   -0.62372297    0.79495001
 C          0.77923298   -0.00851200   -0.44148800
 C          1.21099401    1.42296398   -0.67914301
 O          0.79117399    2.16941404    0.45027599
 C          2.74334598    1.45326698   -0.89262199
 C          3.43912911    0.31615001   -0.12302700
 C          4.83600616    0.71343601    0.28989500
 O          5.53053284   -0.44095400    0.75472403
 O          2.69749808   -0.00483400    1.05680394
 O          3.08363008    1.39897001   -2.26945591
 O          0.94072598   -0.73473698   -1.60452700
 O          1.58508003   -1.99189496    0.53135699
 H          3.49742699   -0.56789899   -0.76840597
 H          0.86194003   -0.45941001    1.69356596
 H         -0.39057201    0.02921700   -0.18411300
 H          0.74031103    1.79349697   -1.59568799
 H          3.09934592    2.42270398   -0.53247899
 C          1.97775900   -2.76436305    1.66895401
 H          1.08705401   -1.66326404   -1.35635900
 H          5.34074306    1.14846098   -0.57996100
 H          4.77170610    1.47542405    1.07580400
 H          2.76966810    0.55571699   -2.62269807
 H          0.94760102    3.10448503    0.27208099
 H          6.40260983   -0.16293800    1.05626500
 H          2.97721291   -2.47758889    2.00281501
 H          1.98028696   -3.80644011    1.35342503
 H          1.26039004   -2.62535310    2.48419595
 C         -3.80999708    0.19685000    1.35108197
 C         -2.27140808    0.39291400    1.25916195
 C         -4.36151981   -0.00095500   -0.06572600
 C         -3.82603788   -1.32407796   -0.62522101
 C         -2.28089309   -1.33333802   -0.46815500
 N         -1.87536097    0.03228700   -0.11002900
 H         -4.25443697    1.07555795    1.82103300
 H         -1.97475898    1.42746794    1.42557001
 H         -5.45236015   -0.01564800   -0.04602100
 H         -4.24468517   -2.17304397   -0.08251600
 H         -1.77553105   -1.60596395   -1.39481497
 H         -4.03801107   -0.67337000    1.96978700
 H         -1.73357797   -0.25479999    1.95092297
 C         -3.86512208    1.14603806   -0.95356899
 H         -4.09577417   -1.42570806   -1.67824495
 H         -1.95151997   -1.99521804    0.33243001
 C         -2.32316589    1.02367997   -1.09857798
 H         -4.12114620    2.10838509   -0.50594300
 H         -4.32300282    1.09791505   -1.94280505
 H         -1.81702900    1.96549499   -0.88916200
 H         -2.02847600    0.66373903   -2.08434606
