48
wb97x-d4 ma-def2-tzvp(-f) cpcm(dmso) E: -1056.425169671715, G: -1056.0487440000002
 C          1.49507105   -0.99900401    0.16155300
 C          0.83007598    0.29540700   -0.34069899
 C          1.24672306    1.50417304    0.46882799
 O          0.79312199    1.28327096    1.79376304
 C          2.78294492    1.66436803    0.37295800
 C          3.48039699    0.31075001    0.15812901
 C          4.87891102    0.26341799    0.74558198
 O          4.88337183    0.44745901    2.15719390
 O          2.72853494   -0.73361498    0.78354400
 O          3.15565491    2.57487798   -0.65145701
 O          1.02437901    0.55544198   -1.68313801
 O          1.62250602   -1.83050704   -0.95519900
 H          3.55852509    0.11680400   -0.91818303
 H          0.87960398   -1.47811699    0.92837900
 H         -0.34126300    0.14801100   -0.15279900
 H          0.78781098    2.40019488    0.03785500
 H          3.12102294    2.10814500    1.31142604
 C          1.99067998   -3.17429209   -0.63320899
 H          1.16487896   -0.29431501   -2.13351393
 H          5.34671497   -0.69038498    0.47900000
 H          5.47075176    1.07396305    0.31598601
 H          2.85861802    2.21358109   -1.49724495
 H          0.94097900    2.08880806    2.30347800
 H          4.39749813   -0.28806499    2.54948092
 H          1.25372005   -3.61394191    0.04626300
 H          2.98111510   -3.20289302   -0.17386700
 H          2.00419307   -3.72773290   -1.57077396
 C         -3.81294703    1.42897904   -0.53422499
 C         -2.27486992    1.47143602   -0.31798401
 C         -4.30887318    0.01189800   -0.22239700
 C         -3.81235504   -0.39194801    1.17082405
 C         -2.26111507   -0.49030399    1.13586295
 N         -1.82688701    0.08360300   -0.14558700
 H         -4.05218220    1.69455504   -1.56581199
 H         -1.75120699    1.89353597   -1.17613006
 H         -5.39909506   -0.01934500   -0.25527799
 H         -4.12107992    0.34941199    1.91038001
 H         -1.91338801   -1.52237296    1.16911995
 H         -4.28669500    2.15908909    0.12372700
 H         -1.99989605    2.02114010    0.58161497
 C         -3.72355890   -0.95489299   -1.25803900
 H         -4.22605085   -1.35827994    1.46339595
 H         -1.79116905    0.07710200    1.93755805
 C         -2.18149209   -0.76511198   -1.29152095
 H         -4.13148117   -0.75387299   -2.24989796
 H         -3.96508908   -1.98593104   -0.99282998
 H         -1.84963298   -0.25468400   -2.19514704
 H         -1.64749503   -1.70981002   -1.19097495
