48
wb97x-d4 ma-def2-tzvp(-f) cpcm(dmso) E: -1056.425594030065, G: -1056.0485645
 C          1.50776505   -0.96175700    0.20391200
 C          0.81081599    0.32306099   -0.28621599
 C          1.14963305    1.52503896    0.57053798
 O          0.63920897    1.25757599    1.86513305
 C          2.68227291    1.74593401    0.55175900
 C          3.43240404    0.42424199    0.32460299
 C          4.79924679    0.42410401    0.97623801
 O          5.55889893   -0.72768998    0.62836099
 O          2.69495201   -0.66055101    0.89714599
 O          3.06535411    2.70742512   -0.41929501
 O          1.04099596    0.62754798   -1.61264396
 O          1.72667599   -1.74336100   -0.93360001
 H          3.55124688    0.25675800   -0.75205398
 H          0.87995201   -1.49569702    0.92289299
 H         -0.36494201    0.13402100   -0.14135601
 H          0.68172503    2.41504192    0.13690700
 H          2.95875597    2.17010903    1.52109802
 C          2.18153191   -3.06867504   -0.64834398
 H          1.24126303   -0.20236599   -2.07782698
 H          5.35974407    1.29369402    0.62869501
 H          4.67758894    0.49839500    2.06392694
 H          2.83433199    2.36327195   -1.29244995
 H          0.74669403    2.05052400    2.40376210
 H          5.07181883   -1.50218499    0.93574703
 H          1.48122394   -3.57116199    0.02642200
 H          3.17637205   -3.04581690   -0.19829200
 H          2.22003293   -3.59642911   -1.59988701
 C         -3.86042905    1.42938304   -0.21904600
 C         -2.30892110    1.45256603   -0.30197600
 C         -4.33005381   -0.02849400   -0.28676000
 C         -3.83766699   -0.76491898    0.96496099
 C         -2.30515790   -0.54521698    1.10061598
 N         -1.84831202    0.06466000   -0.15693200
 H         -4.27272320    2.00823808   -1.04694796
 H         -1.95197403    1.81904805   -1.26427603
 H         -5.41899300   -0.06916400   -0.34255400
 H         -4.33361387   -0.38202900    1.85826802
 H         -1.76579201   -1.48171604    1.23980498
 H         -4.18875885    1.88888896    0.71520698
 H         -1.86565602    2.04256892    0.49937099
 C         -3.71381807   -0.68759102   -1.52560794
 H         -4.05527401   -1.83178306    0.88487703
 H         -2.05470395    0.14015900    1.90848005
 C         -2.17476797   -0.75872499   -1.32943296
 H         -3.95037508   -0.10726400   -2.41960502
 H         -4.10331583   -1.69756603   -1.66282105
 H         -1.63287401   -0.35961601   -2.18701696
 H         -1.83237398   -1.77248096   -1.12378299
