48
wb97x-d4 ma-def2-tzvp(-f) cpcm(dmso) E: -1056.425650883768, G: -1056.04832063
 C          1.50509000   -0.59651399    0.72552299
 C          0.78886497    0.00971500   -0.49783799
 C          1.21539104    1.43900704   -0.76293099
 O          0.81990701    2.19852591    0.36649001
 C          2.74318409    1.47127497   -1.01263905
 C          3.45432711    0.34000501   -0.25320700
 C          4.86190891    0.71883899    0.15543500
 O          5.56709385   -0.37967399    0.72135103
 O          2.74299598    0.03174000    0.94969702
 O          3.05318499    1.40847397   -2.39640903
 O          0.91476101   -0.72802001   -1.65785599
 O          1.63013196   -1.96479905    0.46808699
 H          3.49523902   -0.55122101   -0.88972402
 H          0.92756701   -0.42963099    1.63874602
 H         -0.37180400    0.05500000   -0.20598701
 H          0.72196102    1.79656601   -1.67270696
 H          3.10637093    2.44305611   -0.66618103
 C          2.07201195   -2.72469711    1.59629595
 H          1.06817901   -1.65429604   -1.40578306
 H          5.41816807    1.03629100   -0.72850198
 H          4.81608009    1.55848801    0.85999697
 H          2.73430610    0.56203699   -2.73729205
 H          0.97596401    3.13115191    0.17563801
 H          5.07751322   -0.66824400    1.50144506
 H          3.08541393   -2.43500090    1.88272798
 H          2.06049299   -3.77021790    1.29277802
 H          1.39143705   -2.57574797    2.44074607
 C         -3.73030090    0.28783500    1.45252204
 C         -2.19936609    0.49428099    1.28637803
 C         -4.33333111   -0.01713900    0.07664800
 C         -3.79958296   -1.37005901   -0.40863201
 C         -2.24900794   -1.34714103   -0.31840199
 N         -1.85223305    0.04533700   -0.07011800
 H         -4.16855001    1.19284999    1.87616706
 H         -1.91036296    1.54079795    1.37060297
 H         -5.42221498   -0.04414900    0.14077100
 H         -4.18158102   -2.18288994    0.21101600
 H         -1.77944195   -1.67420197   -1.24620903
 H         -3.92224002   -0.53839397    2.13991904
 H         -1.62643099   -0.09849700    1.99889004
 C         -3.89018106    1.07021797   -0.90904498
 H         -4.11094379   -1.55138195   -1.43920696
 H         -1.87335706   -1.94845104    0.50908101
 C         -2.35297108    0.95946401   -1.10617006
 H         -4.14420319    2.05839396   -0.52052897
 H         -4.38481617    0.94563299   -1.87359798
 H         -1.85451603    1.92048097   -0.98299402
 H         -2.09010410    0.53490502   -2.07498908
