48
wb97x-d4 ma-def2-tzvp(-f) cpcm(dmso) E: -1056.429317759571, G: -1056.05488308
 C          1.49289298   -1.35970294    0.57913601
 C          0.74258202   -1.25980604   -0.74244201
 C          1.51299703   -0.47071499   -1.78539205
 O          0.68511701   -0.33335000   -2.93385100
 C          1.93892705    0.88127500   -1.22604203
 C          2.65795302    0.68138701    0.10853500
 C          2.97143292    2.00155497    0.77540100
 O          3.83076096    1.75720298    1.88775098
 O          1.82092202   -0.05748300    1.00922406
 O          2.83662391    1.52801597   -2.11602211
 O          0.28001401   -2.47730589   -1.17609704
 O          2.60816598   -2.17377210    0.38156199
 H          3.58983493    0.13221700   -0.06599200
 H          0.84672701   -1.76982498    1.36419404
 H         -0.24390300   -0.59005803   -0.45174000
 H          2.41269398   -1.04420495   -2.03730011
 H          1.04745495    1.50098205   -1.06757903
 C          3.28741002   -2.48975992    1.59977698
 H          0.03293600   -2.38727188   -2.11047101
 H          3.45793009    2.65542698    0.04668500
 H          2.03388596    2.46817207    1.10073805
 H          2.34492493    1.77657998   -2.90804100
 H          1.21333504   -0.50147903   -3.72208190
 H          4.03537989    2.60601592    2.29556394
 H          4.07452393   -3.19758892    1.34382701
 H          2.59484696   -2.94978690    2.31255007
 H          3.72925305   -1.59446299    2.04460001
 C         -3.78500104   -0.83721900    0.61942601
 C         -2.32709503   -1.28451800    0.31990701
 C         -3.85300994    0.69207698    0.56226802
 C         -3.51608992    1.15112197   -0.85988498
 C         -2.13140202    0.57033497   -1.25600600
 N         -1.56690001   -0.08565300   -0.06394400
 H         -4.07694197   -1.19770396    1.60709703
 H         -1.84143698   -1.71553695    1.19519603
 H         -4.85276890    1.03149700    0.83828402
 H         -4.27076006    0.80034798   -1.56574905
 H         -1.43541503    1.34489405   -1.57388103
 H         -4.46403122   -1.27346098   -0.11548600
 H         -2.27542996   -1.99341404   -0.50520903
 C         -2.81724191    1.27183998    1.53098595
 H         -3.48712492    2.24140692   -0.90843302
 H         -2.20826197   -0.18449500   -2.03784204
 C         -1.39687204    0.84788102    1.06264102
 H         -2.99820995    0.90170598    2.54188204
 H         -2.88049102    2.36108088    1.55192804
 H         -0.84202302    0.33293501    1.84475505
 H         -0.80912000    1.69261801    0.70556998
