48
wb97x-d4 ma-def2-tzvp(-f) cpcm(dmso) E: -1056.423457508158, G: -1056.04793306
 C          1.43139100   -0.75770599    0.76721698
 C          0.78106999   -0.04861800   -0.43568701
 C          1.20075095    1.40476799   -0.55512702
 O          0.63171500    2.06075597    0.56841701
 C          2.73853898    1.52673304   -0.59934700
 C          3.41164589    0.26171100   -0.05049300
 C          4.83337498    0.51863003    0.41623199
 O          5.56167412    1.01744604   -0.70893502
 O          2.68275690   -0.19462000    1.08856702
 O          3.12930489    1.77236903   -1.94268000
 O          0.94807601   -0.69687402   -1.64085698
 O          1.52462304   -2.10828996    0.42084500
 H          3.42158699   -0.50599802   -0.83177203
 H          0.81957102   -0.63404399    1.66516602
 H         -0.38397899   -0.02027500   -0.18857700
 H          0.80311000    1.80915296   -1.49163103
 H          3.01208591    2.37694097    0.03913900
 C          1.83164799   -2.96666908    1.52261400
 H          1.05993199   -1.64380002   -1.45356596
 H          4.82109022    1.25442398    1.22722006
 H          5.27510405   -0.41233000    0.78533602
 H          4.09821701    1.76258504   -1.94831705
 H          0.82423401    3.00333095    0.50104302
 H          6.39134407    1.39420402   -0.39642900
 H          1.07517195   -2.85782409    2.30630302
 H          2.81960797   -2.73648810    1.92741001
 H          1.82021797   -3.98522091    1.13803506
 C         -3.82435608    0.26832101    1.31475902
 C         -2.28434491    0.45352799    1.21566796
 C         -4.36867714   -0.04221000   -0.08428500
 C         -3.83188295   -1.40654802   -0.53266001
 C         -2.28629994   -1.40339804   -0.37020999
 N         -1.88527596   -0.01419400   -0.11843400
 H         -4.26876020    1.18347001    1.70930302
 H         -1.98480594    1.49633598    1.30094099
 H         -5.45967579   -0.05450900   -0.06954100
 H         -4.25294924   -2.20839596    0.07586800
 H         -1.77806604   -1.74681103   -1.27146196
 H         -4.05826378   -0.54831398    2.00062799
 H         -1.75050795   -0.13884000    1.95820403
 C         -3.86668491    1.02928400   -1.05921698
 H         -4.09751987   -1.59343803   -1.57497501
 H         -1.95933402   -2.00036407    0.48074999
 C         -2.32297397    0.89577198   -1.18476403
 H         -4.12465000    2.02489591   -0.69289303
 H         -4.31829882    0.90102202   -2.04419398
 H         -1.81768203    1.85102797   -1.04645395
 H         -2.02284002    0.45907199   -2.13715792
