48
wb97x-d4 ma-def2-tzvp(-f) cpcm(dmso) E: -1056.425704796405, G: -1056.0476853500002
 C          1.49702597    0.01077400    0.97553700
 C          0.79560399   -0.40708300   -0.33329600
 C          1.23447204    0.46712300   -1.49815905
 O          0.88448101    1.82116699   -1.26695597
 C          2.75063896    0.27860299   -1.71097195
 C          3.46833110    0.11428400   -0.35755000
 C          4.83580780    0.76993603   -0.32743600
 O          4.77173090    2.17184210   -0.56653398
 O          2.68573189    0.71856499    0.68516600
 O          3.04396510   -0.80979502   -2.57279301
 O          0.94586998   -1.73922503   -0.66203099
 O          1.71976697   -1.15515304    1.70310903
 H          3.59424210   -0.95297301   -0.14433999
 H          0.88504601    0.71416497    1.54778397
 H         -0.37801701   -0.18895000   -0.18046300
 H          0.71754199    0.15271600   -2.40630889
 H          3.11300111    1.17401695   -2.21884990
 C          2.19018006   -0.93099999    3.03609705
 H          1.11057901   -2.23452711    0.15830600
 H          5.31534576    0.56260902    0.63486397
 H          5.44794607    0.33822101   -1.12201297
 H          2.67892504   -1.61217999   -2.17533803
 H          1.46460700    2.17079806   -0.57725197
 H          4.31858921    2.57911301    0.18138900
 H          2.20832992   -1.90280104    3.52634692
 H          1.50998104   -0.25860301    3.56797409
 H          3.19543290   -0.50502098    3.02131104
 C         -3.84365606   -1.46165204    0.23317200
 C         -2.31185389   -1.49746203   -0.02455400
 C         -4.33999681   -0.02765700    0.01368200
 C         -3.86263800    0.45515600   -1.36036396
 C         -2.31292200    0.56167501   -1.33452797
 N         -1.85484099   -0.10307400   -0.10486400
 H         -4.05727005   -1.78309298    1.25449896
 H         -1.77040100   -1.98731601    0.78470200
 H         -5.42936897    0.00504800    0.06642400
 H         -4.17562580   -0.24573600   -2.13676691
 H         -1.96837103    1.59387004   -1.29873705
 H         -4.33769083   -2.15278411   -0.45141500
 H         -2.06472611   -1.98004997   -0.96952599
 C         -3.73253107    0.87459099    1.09344196
 H         -4.28381109    1.43388104   -1.59574497
 H         -1.85528600    0.05724900   -2.18521190
 C         -2.19394302    0.66597700    1.10253894
 H         -4.13324594    0.62541997    2.07730198
 H         -3.96509194    1.92083395    0.88552499
 H         -1.86109900    0.08843300    1.96469200
 H         -1.65077996    1.61006796    1.06814003
