48
wb97x-d4 ma-def2-tzvp(-f) cpcm(dmso) E: -1056.424682766181, G: -1056.0474177600001
 C          1.43153799   -1.25010502    0.21250100
 C          0.75441802   -0.46725300   -0.92346799
 C          1.43927395    0.86747903   -1.25721204
 O          0.85267800    1.94482005   -0.55505502
 C          2.94926405    0.74921101   -0.99391401
 C          3.24176788    0.28608501    0.45053801
 C          3.65664291    1.39891195    1.38939905
 O          2.59618902    2.35322595    1.51327896
 O          2.11070895   -0.36284301    1.05913198
 O          3.55028391   -0.11348800   -1.95239997
 O          0.50704801   -1.21534002   -2.05813599
 O          2.27458096   -2.20239997   -0.38215500
 H          4.07884121   -0.41854799    0.40554500
 H          0.69336802   -1.75164497    0.84721202
 H         -0.29889801   -0.13185801   -0.47905400
 H          1.29336596    1.04305196   -2.32519197
 H          3.39644194    1.73280096   -1.15407205
 C          2.79960394   -3.15601897    0.55023801
 H          0.67488599   -2.15060902   -1.87005794
 H          3.88396811    0.97368598    2.37134600
 H          4.55718899    1.87138200    0.98886597
 H          3.35266304   -1.02788103   -1.70017099
 H          1.38709199    2.14710593    0.23763900
 H          2.97338390    3.22394395    1.68017995
 H          3.36426902   -3.88165092   -0.03252100
 H          1.97905099   -3.65430093    1.07491004
 H          3.45807004   -2.66830802    1.27260900
 C         -3.33413410    0.78823501    1.54346395
 C         -1.82873702    0.74230599    1.16025305
 C         -4.16489792    0.43938801    0.30300301
 C         -3.89804292   -1.02100098   -0.07751200
 C         -2.36134005   -1.22644603   -0.18400200
 N         -1.74737501    0.10713900   -0.16212399
 H         -3.57946801    1.78824604    1.90478802
 H         -1.39111805    1.73500001    1.07395196
 H         -5.22647381    0.58580202    0.50867701
 H         -4.29664421   -1.69952202    0.67835498
 H         -2.07569695   -1.71749997   -1.11438596
 H         -3.53757906    0.07635200    2.34598804
 H         -1.24315500    0.14785799    1.86126399
 C         -3.72211409    1.33776605   -0.85773301
 H         -4.37355280   -1.25637698   -1.03171694
 H         -1.96162200   -1.78682804    0.66090900
 C         -2.25789809    0.97442502   -1.23193300
 H         -3.78057909    2.38842010   -0.56641197
 H         -4.36216497    1.19001400   -1.72902799
 H         -1.61620700    1.85122597   -1.28982401
 H         -2.19888496    0.41604301   -2.16596603
