48
wb97x-d4 ma-def2-tzvp(-f) cpcm(dmso) E: -1056.42450629241, G: -1056.0473383600001
 C          1.43229902   -0.46381900    0.78133303
 C          0.79391599    0.07665800   -0.51168603
 C          1.25218797    1.48490000   -0.82476002
 O          0.81886101    2.30484390    0.24682100
 C          2.79117107    1.47766399   -1.00024605
 C          3.44698811    0.37566799   -0.14798599
 C          4.84850407    0.76512003    0.27809501
 O          5.54610395   -0.29416400    0.92421198
 O          2.67497802    0.14257701    1.03131700
 O          3.16479707    1.33609903   -2.36252189
 O          0.98191899   -0.72342801   -1.62179697
 O          1.52401900   -1.85021996    0.62192601
 H          3.49690700   -0.54657400   -0.74004900
 H          0.81390202   -0.21953300    1.64981198
 H         -0.37812600    0.13283300   -0.28593001
 H          0.80831099    1.80571401   -1.77279103
 H          3.15600395    2.46031809   -0.68770897
 C          1.87151098   -2.54255509    1.82418394
 H          1.10511994   -1.63656104   -1.31254900
 H          5.39503002    1.11795497   -0.60331798
 H          4.78780603    1.58476901    0.99839801
 H          2.84204888    0.47947201   -2.67291689
 H          0.98090100    3.22548389    0.00912300
 H          5.73300505   -0.97570503    0.26780701
 H          1.84134805   -3.60612297    1.59323895
 H          1.14747703   -2.31310296    2.61273503
 H          2.87528801   -2.26440597    2.15252495
 C         -3.71150899    0.26927900    1.41860199
 C         -2.16357899    0.21102500    1.29658496
 C         -4.32144594   -0.16322900    0.07956000
 C         -3.71272707   -1.51042295   -0.32574701
 C         -2.20409799   -1.29469001   -0.62656498
 N         -1.85473704    0.04324900   -0.13069600
 H         -4.02694416    1.28436899    1.66788006
 H         -1.68699503    1.12757504    1.64259195
 H         -5.40488386   -0.25273499    0.17224699
 H         -3.83123493   -2.23621011    0.48124301
 H         -1.98880899   -1.31753099   -1.69428301
 H         -4.03174686   -0.39470300    2.22300005
 H         -1.74090803   -0.64136100    1.82837105
 C         -3.96686602    0.88025600   -0.98705900
 H         -4.20215893   -1.90706098   -1.21648002
 H         -1.57469594   -2.02220106   -0.11376100
 C         -2.43086004    1.11440098   -0.95507699
 H         -4.47561216    1.82548702   -0.79139102
 H         -4.27018881    0.52830899   -1.97501004
 H         -2.16654801    2.06463599   -0.49295300
 H         -1.98573005    1.05767596   -1.94832397
