48
wb97x-d4 ma-def2-tzvp(-f) cpcm(dmso) E: -1056.424556926819, G: -1056.0473292400002
 C          1.57619405   -0.82138199   -0.26958200
 C          0.91395098    0.41339201   -0.87308103
 C          1.47076297    1.70747805   -0.30523899
 O          1.00127900    1.79360902    1.03050601
 C          3.01280808    1.68454194   -0.37324399
 C          3.60065007    0.37495899    0.16439500
 C          3.60963202    0.26655701    1.68861103
 O          4.26136112   -0.92102700    2.12772703
 O          2.97542000   -0.74670398   -0.47580501
 O          3.44582391    1.92208195   -1.70625997
 O          0.95223302    0.43081200   -2.25390005
 O          1.08696902   -1.92190504   -0.95660299
 H          4.63887691    0.32980499   -0.17556401
 H          1.34629595   -0.89367402    0.80000800
 H         -0.23363701    0.35473499   -0.51421899
 H          1.10987902    2.54503107   -0.91039097
 H          3.39141107    2.51956701    0.22197400
 C          1.43912196   -3.17593193   -0.36155900
 H          0.88613200   -0.48349500   -2.57342696
 H          4.10825300    1.15806103    2.08574510
 H          2.60503602    0.23662800    2.10514808
 H          3.06391001    1.24067497   -2.27575707
 H          1.24782097    2.65586090    1.38747597
 H          5.18840790   -0.87398303    1.86451697
 H          1.08988202   -3.20922709    0.67526197
 H          2.51942396   -3.33042192   -0.39435700
 H          0.93816298   -3.94721794   -0.94417000
 C         -3.76555896    1.37307501    0.09112600
 C         -2.22474003    1.53811002   -0.01275400
 C         -4.08316898   -0.11365900    0.29107699
 C         -3.23962498   -0.64618403    1.45518601
 C         -1.74532998   -0.61614400    1.03414798
 N         -1.66266298    0.19105700   -0.19356000
 H         -4.24410295    1.74217403   -0.81822699
 H         -1.93159497    2.14703703   -0.86800700
 H         -5.14490986   -0.24632999    0.50431001
 H         -3.38913894   -0.02851300    2.34308600
 H         -1.36308098   -1.60975802    0.80114102
 H         -4.13083792    1.96476996    0.93202502
 H         -1.79009104    1.95540798    0.89370102
 C         -3.69942904   -0.87547898   -0.98291898
 H         -3.52061605   -1.67126095    1.70188498
 H         -1.11323404   -0.15155099    1.78981102
 C         -2.23937893   -0.50182003   -1.35532606
 H         -4.35863781   -0.60908800   -1.81049299
 H         -3.77787399   -1.95188498   -0.81751102
 H         -2.19205499    0.18193200   -2.20241404
 H         -1.63000202   -1.38071501   -1.56449795
