48
wb97x-d4 ma-def2-tzvp(-f) cpcm(dmso) E: -1056.423544395308, G: -1056.0473128400001
 C          1.47346699   -0.16881201    0.96978599
 C          0.79083800   -0.27708700   -0.40736499
 C          1.17044997    0.87293100   -1.32017195
 O          0.64433599    2.04203510   -0.71028298
 C          2.70899510    0.93596399   -1.49330604
 C          3.42471004    0.28011799   -0.30886701
 C          4.81899309    0.83053398   -0.12604500
 O          5.51798677    0.00543600    0.80312699
 O          2.68689108    0.53644502    0.88832301
 O          3.14112592    0.25610700   -2.66199899
 O          0.97568399   -1.48415601   -1.04733098
 O          1.63767099   -1.47869694    1.43136501
 H          3.48709512   -0.79891300   -0.48560601
 H          0.85433799    0.40466401    1.66531396
 H         -0.36988300   -0.14348400   -0.19919901
 H          0.72255999    0.70665300   -2.30555606
 H          2.98133111    1.99725997   -1.54529095
 C          2.02090907   -1.55988002    2.80616093
 H          1.12968802   -2.15858603   -0.36515799
 H          5.32108593    0.83392602   -1.09939599
 H          4.75137615    1.86177599    0.24008100
 H          2.92776489    0.80146301   -3.42834401
 H          0.77894503    2.78588891   -1.30920804
 H          6.39238024    0.38597801    0.94204700
 H          3.00787210   -1.11751103    2.95831990
 H          2.04923892   -2.61814404    3.06099296
 H          1.28488004   -1.04730499    3.43392205
 C         -3.80252099   -1.54301405    0.30148101
 C         -2.27468705   -1.52824998    0.01245900
 C         -4.35557318   -0.13430899    0.05322700
 C         -3.91215801    0.32945901   -1.33908701
 C         -2.36786389    0.50749803   -1.32800305
 N         -1.87691796   -0.11945900   -0.09436400
 H         -3.98255992   -1.84326005    1.33570600
 H         -1.69983006   -1.98657799    0.81715202
 H         -5.44470596   -0.14103900    0.11887600
 H         -4.19791603   -0.40778100   -2.09192705
 H         -2.07109308    1.55478299   -1.30678296
 H         -4.28288603   -2.27139401   -0.35349801
 H         -2.02924395   -2.01360798   -0.93164098
 C         -3.76946712    0.81778002    1.10185099
 H         -4.37823296    1.28105700   -1.59960604
 H         -1.89199305    0.01351500   -2.17519593
 C         -2.22443700    0.65471101    1.10501599
 H         -4.15472078    0.58616602    2.09610605
 H         -4.03492498    1.85001898    0.86516201
 H         -1.87134898    0.09681000    1.97190404
 H         -1.70765901    1.61229098    1.05485106
