26
energy: -724.842644004778
 C         -1.13512003    0.41578001   -0.29728001
 C         -1.04345405   -1.06298697    0.12590100
 O         -0.27845800    1.19834304    0.54780602
 C         -2.52516890    1.00863504   -0.16269900
 H         -0.81964099    0.50495201   -1.34125996
 C          1.09876096    0.86970401    0.50937098
 C          1.30793095   -0.60401702    0.92690301
 H          1.56768596    1.54560804    1.23026896
 O          1.65943801    1.03893900   -0.75906599
 C          0.39708701   -1.48889995    0.13303900
 H          1.01506102   -0.66100401    1.97678697
 O          2.67528510   -0.96656603    0.86106998
 O          0.90000999   -1.92602098   -1.06195402
 O         -1.79482603   -1.82858801   -0.81665701
 H         -1.46383095   -1.15250897    1.12990499
 H         -2.49998212    2.04362702   -0.51695198
 O         -3.03105402    0.94536602    1.16792500
 H         -3.21571398    0.44728401   -0.78897703
 H         -2.43473697    1.44490898    1.73708606
 H         -2.05804491   -2.65906906   -0.40424699
 H          0.15147801   -2.25194907   -1.58679402
 C          1.76957095    2.40031195   -1.17436004
 H          0.78477103    2.84740305   -1.32001603
 H          2.30968499    2.39864492   -2.11781907
 H          2.32551789    2.98283601   -0.43455300
 H          2.97617102   -0.81367302   -0.04292800
