26
energy: -724.842559883834
 C         -1.19500303    0.21516700    0.00213000
 C         -0.94121403   -1.25366104    0.39088500
 O         -0.29572299    1.05435097    0.74272799
 C         -2.59154606    0.69042301    0.34610400
 H         -1.01745796    0.33625099   -1.06997502
 C          1.08455896    0.84259301    0.50153297
 C          1.46346903   -0.61227298    0.86325902
 H          1.59530997    1.54969203    1.16149497
 O          1.44340897    1.06610894   -0.82999003
 C          0.51748699   -1.56395495    0.19726899
 H          1.33048201   -0.69310200    1.94349802
 O          2.82981801   -0.87086600    0.59605902
 O          0.88129300   -1.96309197   -1.05888796
 O         -1.75093901   -2.07520700   -0.45018801
 H         -1.21175802   -1.37760699    1.44351196
 H         -3.32234001    0.07619200   -0.17559700
 O         -2.81361890    2.03643203   -0.06863900
 H         -2.75293994    0.58603299    1.42441595
 H         -2.13993192    2.58724999    0.34628901
 H         -1.86865604   -2.93397093   -0.02798800
 H          0.09387800   -2.34351802   -1.48010504
 C          1.36801100    2.43397689   -1.23226094
 H          0.33492300    2.78550911   -1.23497200
 H          1.77268004    2.48885703   -2.23967600
 H          1.96201205    3.06286097   -0.56342202
 H          2.98225808   -0.70416498   -0.34192100
