26
energy: -724.835984927158
 C         -1.38035095   -0.01003800   -0.44135600
 C         -0.95174801   -1.47256303   -0.20392600
 O         -0.24632600    0.80220002   -0.78408599
 C         -2.15785789    0.57569098    0.73243499
 H         -2.01266909    0.02385800   -1.32914197
 C          0.83129001    0.80290902    0.15143999
 C          1.36445606   -0.61775100    0.39132699
 H          0.50029898    1.22809398    1.10707200
 O          1.85775805    1.56588197   -0.38895300
 C          0.22429900   -1.51674700    0.71950799
 H          2.07535005   -0.58180600    1.22067201
 O          1.99497604   -1.11469197   -0.80118102
 O          0.07470100   -1.80255103    2.04516506
 O         -0.64751899   -2.10342407   -1.45766902
 H         -1.79636598   -2.01649594    0.22379000
 H         -3.07015800   -0.00366200    0.87225902
 O         -2.55810690    1.91918504    0.47538799
 H         -1.58197105    0.51933002    1.66075301
 H         -1.77828300    2.41753507    0.20364800
 H          0.27130601   -1.88293397   -1.66984999
 H         -0.74535698   -2.28989196    2.19640803
 C          1.59442902    2.97189999   -0.43809301
 H          2.51154399    3.44865203   -0.77385402
 H          1.33067000    3.34247208    0.55585998
 H          0.78828800    3.19533992   -1.13702703
 H          2.50018692   -0.38762200   -1.18967497
