26
energy: -724.831680195141
 C         -1.22906995    0.33885100   -0.01170600
 C         -0.90199000   -1.15627396   -0.03486400
 O         -0.35031700    1.08556104    0.84867102
 C         -2.62779188    0.60284400    0.51240897
 H         -1.16071403    0.71406400   -1.03338397
 C          1.04902899    0.94674897    0.73734599
 C          1.44876099   -0.54138899    0.73338401
 H          1.44491398    1.40633905    1.64099598
 O          1.64937794    1.69509494   -0.29394299
 C          0.56879401   -1.35717499   -0.15112101
 H          1.33467197   -0.88972801    1.77038598
 O          2.82868004   -0.73491102    0.43949601
 O          0.94912601   -2.64854693   -0.37678799
 O         -1.62622094   -1.71310794   -1.13417602
 H         -1.25961697   -1.61950696    0.90086502
 H         -3.34417892    0.02789400   -0.07098100
 O         -2.99867392    1.97223699    0.38566801
 H         -2.68608403    0.27845901    1.55674005
 H         -2.37615108    2.49798608    0.90050298
 H         -1.52674699   -2.67094994   -1.11126196
 H          1.91265905   -2.70217991   -0.28988299
 C          1.24029505    1.51006806   -1.65437400
 H          0.30361199    2.03160000   -1.85163605
 H          1.13220799    0.45462501   -1.91031599
 H          2.02546191    1.94808304   -2.26671410
 H          3.05587912   -0.20299000   -0.33420399
