26
energy: -724.832499176608
 C         -1.30241096   -0.04234100   -0.27285501
 C         -0.93191803   -1.20866394    0.69077897
 O         -0.13812900    0.69756001   -0.68766499
 C         -2.33021402    0.89800000    0.33187899
 H         -1.69853497   -0.47745001   -1.19142401
 C          0.87084299    0.79768503    0.31075701
 C          1.51491201   -0.58966798    0.57587898
 H          0.43136001    1.17466998    1.24214101
 O          1.85832095    1.65481997   -0.14288799
 C          0.46024799   -1.65393698    0.37908199
 H          1.87547803   -0.58856201    1.61089802
 O          2.58994603   -0.86290401   -0.31168899
 O          0.55443603   -2.39518809   -0.76581699
 O         -1.90670800   -2.23915005    0.61784601
 H         -0.95806599   -0.84509599    1.72049201
 H         -3.22193789    0.33379501    0.60337502
 O         -2.73991704    1.90239298   -0.59283203
 H         -1.92510295    1.35490799    1.24124205
 H         -1.94791305    2.37024307   -0.88317400
 H         -1.82029200   -2.68005300   -0.23610300
 H          1.44484997   -2.25600004   -1.13007796
 C          1.50059199    3.04139400   -0.13247500
 H          2.38229108    3.59174705   -0.44933999
 H          1.21628106    3.34923697    0.87644202
 H          0.67809200    3.23510408   -0.82118303
 H          2.97879410   -0.01814800   -0.57500798
