26
energy: -724.83795752266
 C         -1.00502706    0.31516001   -0.44591901
 C         -1.03095603   -1.12256300    0.10019200
 O         -0.22682500    1.13877904    0.42761600
 C         -2.38013005    0.94800198   -0.54107600
 H         -0.56431198    0.30233899   -1.44778502
 C          1.15853500    0.84868002    0.48261201
 C          1.48919702   -0.64502901    0.24920100
 H          1.46301305    1.13587999    1.49182796
 O          1.88285601    1.58886194   -0.46186101
 C          0.31810600   -1.46404302    0.61724502
 H          2.34391809   -0.90057302    0.88033599
 O          1.83389604   -0.90509200   -1.13295603
 O          0.57675600   -2.70899105    1.10304403
 O         -1.50425005   -2.04265189   -0.90709102
 H         -1.77784896   -1.19717801    0.89548498
 H         -2.28483295    1.93210900   -1.00863504
 O         -3.02895403    1.05404902    0.72306401
 H         -3.01643610    0.32776600   -1.17072296
 H         -2.47475910    1.59451306    1.29762101
 H         -0.85464299   -2.06732297   -1.62121403
 H         -0.24202000   -3.21682596    1.17795503
 C          1.91679502    2.99483705   -0.21407101
 H          2.57035708    3.42991400   -0.96574497
 H          2.31831193    3.19690800    0.78261203
 H          0.92089599    3.43074489   -0.30002600
 H          2.28348708   -0.11429300   -1.46298695
