26
energy: -724.838973199257
 C         -1.25734794    0.69730699    0.02869200
 C         -0.90021402   -0.66429901   -0.58157802
 O         -0.14518200    1.40737104    0.62452799
 C         -2.30019212    0.56638801    1.13822806
 H         -1.65978706    1.32811701   -0.76827598
 C          1.15090001    0.90000802    0.44987100
 C          1.23727405   -0.56614000    0.88528198
 H          1.79203701    1.52819395    1.07147503
 O          1.59007096    0.96221501   -0.89159000
 C          0.14846100   -1.32709002    0.21843900
 H          1.13544405   -0.59444898    1.97602105
 O          2.53495193   -1.12256598    0.63719600
 O          0.19487000   -2.68658400    0.19348100
 O         -0.54885900   -0.55515999   -1.98741496
 H         -1.80792701   -1.26803005   -0.58306497
 H         -1.96292400   -0.16114500    1.87777197
 O         -3.55275011    0.10024900    0.64682603
 H         -2.40577888    1.53387904    1.63448906
 H         -3.96673393    0.80427903    0.13554400
 H          0.28050700   -0.05432100   -2.01675892
 H          1.04441702   -2.98465991    0.54867899
 C          1.84801698    2.28830099   -1.36196005
 H          0.93305498    2.88194203   -1.37393403
 H          2.23337102    2.19213390   -2.37362909
 H          2.59311795    2.77499604   -0.72856599
 H          2.74793911   -0.96156901   -0.29187301
