26
energy: -724.843933054799
 C         -1.11241496    0.54209900   -0.31595299
 C         -1.01116002   -0.97954500   -0.17367101
 O         -0.26896101    1.18611503    0.64877898
 C         -2.51183510    1.08292603   -0.08887400
 H         -0.79819101    0.81946498   -1.32713103
 C          1.10830200    0.88676500    0.52631402
 C          1.36906099   -0.60964900    0.74806303
 H          1.59747005    1.48031294    1.30253899
 O          1.61973798    1.21680403   -0.73418498
 C          0.41222301   -1.41696799   -0.06344300
 H          1.21612597   -0.81180102    1.81619203
 O          2.73448801   -0.93178201    0.50469702
 O          0.63845599   -2.76305509   -0.04609100
 O         -1.67851806   -1.65802705   -1.24508905
 H         -1.56271803   -1.28630805    0.72449702
 H         -2.50876594    2.15722895   -0.29386300
 O         -3.00332499    0.82427001    1.22351301
 H         -3.19884396    0.60240602   -0.78340000
 H         -2.40451908    1.24116397    1.85338902
 H         -1.22986996   -1.43724597   -2.07238603
 H         -0.09600600   -3.20260692   -0.49866599
 C          1.70394599    2.62004495   -0.98405898
 H          0.71109802    3.07031608   -1.03297305
 H          2.20380712    2.73925591   -1.94192398
 H          2.28682399    3.11339808   -0.20162299
 H          2.94896507   -0.61610699   -0.38273701
