26
energy: -724.843915978015
 C         -1.18374002    0.30982301   -0.04700500
 C         -0.94044298   -1.19540298    0.07987300
 O         -0.28730199    1.02497804    0.81503302
 C         -2.58333611    0.71647203    0.36564401
 H         -1.01049995    0.61036098   -1.08448601
 C          1.08375001    0.85891598    0.50569201
 C          1.50488305   -0.60834301    0.67264801
 H          1.61460197    1.49322903    1.21985805
 O          1.39099395    1.23871899   -0.80505103
 C          0.51923501   -1.50502396    0.00027500
 H          1.52221298   -0.81902599    1.74985898
 O          2.84516907   -0.81069100    0.23828299
 O          0.86231500   -2.82545710   -0.01161900
 O         -1.67996800   -1.94578195   -0.89082998
 H         -1.33897805   -1.53927898    1.04531300
 H         -3.31096292    0.15898900   -0.22106899
 O         -2.82931304    2.09850597    0.12163500
 H         -2.73156905    0.47637600    1.42371094
 H         -2.17533708    2.60788012    0.61367202
 H         -1.36527598   -1.69994700   -1.77108896
 H          0.11672300   -3.33349800   -0.36308399
 C          1.29775202    2.64328408   -1.04457796
 H          1.92141700    3.19426107   -0.33551300
 H          0.26562300    2.98765302   -0.96163702
 H          1.65684605    2.81396389   -2.05626392
 H          2.90281510   -0.50106198   -0.67484099
