26
energy: -724.838737752831
 C         -1.09481502    0.17307700   -0.09104000
 C         -0.93694299   -1.29485202    0.34446400
 O         -0.22857600    1.00258601    0.68937701
 C         -2.50182009    0.69119501    0.11470200
 H         -0.83057499    0.25696099   -1.14933598
 C          1.15311396    0.82320398    0.43898600
 C          1.52857602   -0.64816499    0.12802900
 H          1.64399505    1.14012206    1.36195397
 O          1.59740901    1.60692704   -0.63399398
 C          0.48859000   -1.53616405    0.68589097
 H          2.49715996   -0.85657197    0.58811802
 O          1.62501502   -0.88558602   -1.29734695
 O          0.90153497   -2.76446390    1.10183799
 O         -1.43296504   -2.18488693   -0.67918301
 H         -1.57864594   -1.50089204    1.20731199
 H         -3.20528889    0.04586900   -0.40939200
 O         -2.67258406    2.00327802   -0.41279501
 H         -2.74035907    0.66842401    1.18357003
 H         -2.04082990    2.58344603    0.02746500
 H         -0.85000002   -2.10626698   -1.44535398
 H          0.14106899   -3.32200599    1.31317198
 C          1.57346404    3.01385093   -0.38892999
 H          2.01134109    3.49138904   -1.26157904
 H          2.16492391    3.25589490    0.49812600
 H          0.55129200    3.36849403   -0.25240201
 H          1.93013704   -0.06047800   -1.70057094
