27
wb97x-d4 ma-def2-tzvp(-f) cpcm(dmso) E: -727.029542606751, G: -726.83842177
 C         -1.26518798   -0.02046300    0.39313701
 C         -1.01629305    1.47460604    0.19222499
 O         -0.25120300   -0.78149199   -0.26685700
 C         -2.59618306   -0.48591599   -0.16279800
 H         -1.23431206   -0.23469201    1.47105801
 C          1.03092003   -0.55002397    0.29438600
 C          1.44211805    0.90972900    0.10954000
 C          0.37834799    1.81912005    0.72562802
 H          2.40037203    1.07173598    0.61505300
 O          1.55613506    1.22718298   -1.27674997
 O          0.68917298    3.19041204    0.54221803
 H          0.38010600    1.64259803    1.80469096
 O         -1.16316104    1.87397099   -1.16762698
 H         -1.76240897    2.03668094    0.75948799
 H         -3.39998388    0.09501100    0.29373500
 O         -2.84487295   -1.85475898    0.14874101
 H         -2.61964989   -0.32609001   -1.24473703
 H         -2.14244390   -2.37482095   -0.26023799
 H         -0.42219499    1.48561096   -1.65809798
 H          0.53297698    3.39837003   -0.38834000
 H          2.11825109    0.55669200   -1.68583095
 O          1.95580804   -1.33977795   -0.37529799
 H          1.00442803   -0.80001003    1.36727202
 C          1.82183802   -2.73712611   -0.10502200
 H          2.65499902   -3.23267007   -0.60161602
 H          0.87819499   -3.12290311   -0.49728099
 H          1.87422705   -2.92097306    0.97332299
