27
wb97x-d4 ma-def2-tzvp(-f) cpcm(dmso) E: -727.025675785535, G: -726.83114884
 C         -1.25937498   -0.09547900    0.94420999
 C         -1.02776694    1.42480695    0.84773803
 O         -0.04737400   -0.75725400    1.35151100
 C         -1.96347702   -0.77623498   -0.22491699
 H         -1.93418097   -0.25375399    1.79043901
 C          1.13903904   -0.49462599    0.63831198
 C          1.39784002    1.01040995    0.48308700
 C          0.18577200    1.81544304    0.00891500
 H          1.64166498    1.36829102    1.48673296
 O          2.53528595    1.25605905   -0.32005200
 O         -0.04247100    1.72110295   -1.38978505
 H          0.40163001    2.87097311    0.19487201
 O         -2.20158601    2.10138512    0.42619500
 H         -0.82178402    1.76447105    1.86666906
 H         -2.07523990   -1.83607304    0.02565300
 O         -1.33962297   -0.64552200   -1.50372195
 H         -2.95896697   -0.34024099   -0.31822100
 H         -0.45952699   -1.05744803   -1.42726898
 H         -2.18292499    2.15742898   -0.53840899
 H         -0.52170801    0.88796300   -1.58051300
 H          2.27729297    1.07366300   -1.23367095
 O          1.16928399   -1.12544405   -0.62573999
 H          1.93245900   -0.92658699    1.25485504
 C          1.47919798   -2.52307796   -0.54397202
 H          2.45935512   -2.66202211   -0.07929900
 H          1.49925196   -2.90168190   -1.56517994
 H          0.71793097   -3.05655289    0.03156300
