27
wb97x-d4 ma-def2-tzvp(-f) cpcm(dmso) E: -727.023094119077, G: -726.83035949
 C         -1.29523897    0.20856300    0.68551201
 C         -0.88589603    1.18703997   -0.40811500
 O         -0.33785301   -0.85516798    0.85396200
 C         -2.62977695   -0.45801201    0.40932000
 H         -1.36806905    0.76677799    1.62788904
 C          1.01647198   -0.54879999    0.60032701
 C          1.30296302    0.92409801    0.87594700
 C          0.44665200    1.86246896   -0.00831300
 H          1.02568305    1.09486496    1.91937006
 O          2.67865396    1.21554005    0.75210601
 O          1.17076898    2.27702498   -1.15696001
 H          0.22425000    2.75870991    0.57483703
 O         -0.79099298    0.57252002   -1.68883801
 H         -1.66138995    1.94913197   -0.50117302
 H         -3.39954090    0.31013399    0.31041300
 O         -3.02800393   -1.30424404    1.48457897
 H         -2.57237196   -1.02361095   -0.52566701
 H         -2.35933208   -1.99464405    1.57040703
 H         -0.14042500   -0.14889701   -1.61252296
 H          0.82671899    1.76007700   -1.90191197
 H          2.80833793    1.49983597   -0.16531201
 O          1.36480701   -0.84086102   -0.73800802
 H          1.60657704   -1.18669605    1.26552999
 C          1.47351694   -2.24378991   -0.99770403
 H          2.22245908   -2.69032407   -0.33646101
 H          1.78965104   -2.34906912   -2.03473306
 H          0.51138002   -2.74267197   -0.85448003
