27
wb97x-d4 ma-def2-tzvp(-f) cpcm(dmso) E: -727.023281092694, G: -726.8300669399999
 C         -1.16459298   -0.16411801    0.90923798
 C         -1.00783503    1.34762800    0.64438897
 O          0.04831700   -0.74467099    1.41320598
 C         -1.76716495   -0.96270102   -0.25476101
 H         -1.87020802   -0.27945399    1.73541105
 C          1.23999798   -0.45350501    0.72119403
 C          1.46933496    1.05523205    0.64255601
 C          0.29774699    1.73773599   -0.05282200
 H          1.51355898    1.42423201    1.66958404
 O          2.71517491    1.36679101    0.04816300
 O          0.24789301    1.46571505   -1.45463395
 H          0.41541001    2.82112193    0.02633600
 O         -2.11658597    1.83814299   -0.10657700
 H         -1.01995099    1.85751498    1.61118495
 H         -1.33188105   -0.69541001   -1.22055805
 O         -3.18460703   -0.79891300   -0.29035199
 H         -1.57740903   -2.02168012   -0.07559100
 H         -3.34416389    0.15300500   -0.35428599
 H         -1.83403802    1.84714305   -1.03376698
 H          0.42541599    0.52191001   -1.58770800
 H          2.67642903    1.10713995   -0.88136601
 O          1.24212396   -0.95435202   -0.59397799
 H          2.03332901   -0.93205899    1.30355704
 C          1.43476999   -2.36773705   -0.67826998
 H          2.40653706   -2.63763309   -0.25368699
 H          1.41014194   -2.62755895   -1.73556995
 H          0.64225900   -2.90352011   -0.15088999
