27
wb97x-d4 ma-def2-tzvp(-f) cpcm(dmso) E: -727.022635098836, G: -726.82993043
 C         -1.32713306    0.11467200    0.77029002
 C         -0.96482301    1.59743500    0.55957502
 O         -0.21900800   -0.62981701    1.31789505
 C         -1.94710004   -0.61198401   -0.41829601
 H         -2.07530403    0.07737200    1.56635797
 C          1.05666995   -0.45805100    0.74003500
 C          1.44265401    1.01852202    0.65463001
 C          0.38838401    1.80968499   -0.11173500
 H          1.46962500    1.40586603    1.67548501
 O          2.74675202    1.17817795    0.12708201
 O          0.33485600    1.49551797   -1.50324702
 H          0.63395900    2.87326097   -0.05770600
 O         -1.98863006    2.28706694   -0.14145599
 H         -0.90639502    2.05387998    1.55143702
 H         -2.80253005   -0.03896500   -0.77649802
 O         -2.45613289   -1.88102305   -0.00653800
 H         -1.24192905   -0.73898798   -1.24156904
 H         -1.75157595   -2.33859396    0.46784800
 H         -1.81892800    2.16149211   -1.08562899
 H          0.46765301    0.54172498   -1.60818994
 H          2.77087808    0.74574202   -0.73641598
 O          1.16041696   -0.98156798   -0.56417698
 H          1.73970795   -0.99458402    1.40540099
 C          1.29260504   -2.40205193   -0.62431502
 H          2.15731311   -2.72282696   -0.03552300
 H          1.44387102   -2.66100788   -1.67120898
 H          0.39414099   -2.90095592   -0.25353301
