27
wb97x-d4 ma-def2-tzvp(-f) cpcm(dmso) E: -727.022177566807, G: -726.82952175
 C         -1.23787796   -0.04530200    0.70601302
 C         -0.91244698    1.01747000   -0.33616701
 O         -0.19510700   -1.02715194    0.83544999
 C         -2.50538898   -0.82918698    0.38783801
 H         -1.37018597    0.46559501    1.66997898
 C          1.12726998   -0.59475601    0.59537703
 C          1.29062903    0.88196701    0.94126397
 C          0.35466501    1.78606904    0.10395500
 H          1.00293601    0.97748899    1.99165201
 O          2.63664603    1.29284096    0.83276498
 O          1.03977203    2.32287908   -1.01810396
 H          0.05459900    2.62737989    0.73235798
 O         -0.76253498    0.47654501   -1.64413500
 H         -1.75368905    1.70820904   -0.39448601
 H         -2.42623711   -1.26409400   -0.60929799
 O         -3.65478611    0.01010400    0.38454199
 H         -2.61017203   -1.64067304    1.11511600
 H         -3.83930802    0.27534601    1.29341698
 H         -0.04780800   -0.18445399   -1.60099196
 H          0.74195802    1.81746805   -1.79017305
 H          2.73795199    1.63329804   -0.06887300
 O          1.49497497   -0.79345202   -0.75524700
 H          1.77108502   -1.21127999    1.23006999
 C          1.71852005   -2.16898108   -1.08041203
 H          2.03906393   -2.19910502   -2.12096405
 H          0.80162501   -2.75189209   -0.96089703
 H          2.50385094   -2.58233094   -0.44004801
