27
wb97x-d4 ma-def2-tzvp(-f) cpcm(dmso) E: -727.02147737488, G: -726.82951091
 C         -1.32352197    0.02542000    0.47186700
 C         -0.86884302    1.35872400   -0.11059600
 O         -0.35708499   -1.00217700    0.24781500
 C         -2.63345599   -0.46791801   -0.11175700
 H         -1.44798398    0.16555500    1.55498397
 C          0.88404000   -0.69373101    0.86830199
 C          1.49865603    0.53354800    0.17773101
 C          0.53262198    1.69926703    0.40985999
 H          2.45653892    0.75754601    0.65401000
 O          1.76256394    0.31834200   -1.19912601
 O          1.04404497    2.85820603   -0.23898900
 H          0.46193099    1.86659598    1.49052000
 O         -0.86978501    1.27263701   -1.53811800
 H         -1.57372999    2.13388491    0.21397200
 H         -3.39677811    0.30230799    0.01467700
 O         -3.09871602   -1.63122904    0.56670803
 H         -2.50972795   -0.66796899   -1.18006802
 H         -2.42095304   -2.31103706    0.46772599
 H         -0.51944900    2.11147189   -1.86698604
 H          0.59751499    3.63022590    0.12941401
 H          0.91050899    0.34469199   -1.65989196
 O          1.67383099   -1.83723497    0.91589999
 H          0.70404798   -0.43716100    1.92065704
 C          2.04902101   -2.45132899   -0.32353801
 H          2.89132595   -1.93083405   -0.78083301
 H          1.21248198   -2.47656894   -1.02317297
 H          2.34090209   -3.47123289   -0.07106700
