27
wb97x-d4 ma-def2-tzvp(-f) cpcm(dmso) E: -727.021536989827, G: -726.82941261
 C         -1.33560097   -0.03704200    0.49801001
 C         -0.93790799    1.32429695   -0.07354100
 O         -0.33418000   -1.01720500    0.22731100
 C         -2.65082192   -0.53255200   -0.07446100
 H         -1.44042504    0.07622600    1.58806801
 C          0.90050101   -0.68185502    0.84021097
 C          1.46080005    0.59929699    0.22006699
 C          0.44262001    1.72349799    0.45506400
 H          2.40319204    0.84597498    0.72006297
 O          1.67884505    0.40602601   -1.17762804
 O          0.88573903    2.93682790   -0.13785601
 H          0.36441901    1.89697301    1.53220606
 O         -0.95676303    1.34535599   -1.50000596
 H         -1.67340899    2.06516790    0.24964300
 H         -3.38494396    0.27886099   -0.01768200
 O         -3.13156796   -1.69961298    0.58625501
 H         -2.51562405   -0.80242801   -1.12229705
 H         -3.37826204   -1.45521700    1.48602700
 H         -0.22674200    0.78084898   -1.79968405
 H          0.53177500    2.95683193   -1.03791702
 H          2.17964911    1.16559994   -1.49948895
 O          1.74000597   -1.79191303    0.82887000
 H          0.72826898   -0.47459900    1.90483904
 C          2.09208012   -2.35578394   -0.44149700
 H          1.23139501   -2.39281511   -1.11057699
 H          2.43042207   -3.37072301   -0.23128501
 H          2.89653897   -1.79004002   -0.91271800
