27
wb97x-d4 ma-def2-tzvp(-f) cpcm(dmso) E: -727.020478602048, G: -726.82926283
 C         -1.31080496    0.11841100    0.65056801
 C         -0.89772600    1.59125996    0.52676898
 O         -0.25857699   -0.63553399    1.28028202
 C         -1.81205797   -0.53957897   -0.62995702
 H         -2.13073707    0.06362600    1.37340498
 C          1.04135394   -0.54053199    0.73021197
 C          1.47843003    0.91699499    0.54177499
 C          0.44106901    1.77405906   -0.17245901
 H          1.59692204    1.33364999    1.54477203
 O          2.75065994    0.98453200   -0.07479700
 O          0.39617500    1.41796303   -1.54845297
 H          0.73997098    2.82506204   -0.07637100
 O         -1.85895801    2.36333203   -0.18275900
 H         -0.78041202    1.97964096    1.54575896
 H         -2.63342810    0.05664300   -1.02860904
 O         -2.35127091   -1.83435595   -0.35100499
 H         -1.02476597   -0.60237998   -1.37874103
 H         -1.64591897   -2.36581397    0.03578100
 H         -2.67345905    2.39235711    0.33283001
 H         -0.24056700    2.00214195   -1.97685802
 H          2.67395091    0.52941602   -0.92389297
 O          1.17716897   -1.22469401   -0.48651999
 H          1.68761396   -1.00687504    1.48163700
 C          1.36972106   -2.62790608   -0.32451999
 H          2.31040001   -2.82703400    0.20016900
 H          1.40964401   -3.06209898   -1.32301497
 H          0.54560202   -3.08228588    0.23399700
