27
wb97x-d4 ma-def2-tzvp(-f) cpcm(dmso) E: -727.028527597519, G: -726.83730911
 C         -1.23639905   -0.05539900    0.30423000
 C         -0.99569702    1.43998504    0.08707700
 O         -0.19302399   -0.81420797   -0.30515400
 C         -2.55874395   -0.51421797   -0.28239301
 H         -1.24005401   -0.24560200    1.38853300
 C          1.06591702   -0.55379200    0.29210600
 C          1.46952796    0.90488702    0.08727900
 C          0.37830901    1.81328499    0.65240502
 H          2.41077304    1.08792198    0.61705500
 O          1.62047994    1.19504702   -1.30152404
 O          0.67740399    3.18447590    0.44856101
 H          0.35105100    1.65892994    1.73451900
 O         -1.11013699    1.81064606   -1.28403997
 H         -1.76386297    2.00329804    0.62254101
 H         -3.34661293    0.17011900    0.05166400
 O         -2.87553310   -1.86004198    0.06203700
 H         -2.50823808   -0.47682801   -1.37088001
 H         -3.03762293   -1.89793098    1.01209903
 H         -0.35261300    1.42031801   -1.74665105
 H          0.54931903    3.36981511   -0.49095500
 H          2.19675994    0.51946598   -1.68146205
 O          2.02193189   -1.34943902   -0.32617199
 H          1.00707901   -0.77833402    1.36955202
 C          1.88290703   -2.74256611   -0.03684800
 H          0.96054602   -3.14121103   -0.46485800
 H          1.88552296   -2.90656710    1.04603004
 H          2.74101090   -3.24205589   -0.48475099
