27
wb97x-d4 ma-def2-tzvp(-f) cpcm(dmso) E: -727.02134473225, G: -726.82923854
 C         -1.27526295   -0.20908700    0.49587500
 C         -0.95283002    1.17612696   -0.05381800
 O         -0.21299100   -1.12337303    0.23257899
 C         -2.53041697   -0.83014703   -0.10611300
 H         -1.40776098   -0.10934000    1.58346903
 C          0.99152100   -0.72872901    0.87318099
 C          1.47937095    0.60577601    0.29713199
 C          0.38405299    1.65318000    0.52730900
 H          2.38608289    0.89903599    0.83215499
 O          1.82442296    0.54941100   -1.08161700
 O          0.76318198    2.90974998   -0.01813100
 H          0.25092801    1.79461002    1.60368502
 O         -0.89503902    1.09250796   -1.48185503
 H         -1.74541795    1.86768997    0.24544799
 H         -2.40303802   -0.94013202   -1.18310106
 O         -3.67628694   -0.01017500    0.09189500
 H         -2.67428493   -1.82300305    0.33177301
 H         -3.90525889   -0.02938200    1.02849197
 H         -0.86702102    1.99251699   -1.82811701
 H          1.28124905    2.72919297   -0.81470799
 H          0.99807298    0.43559000   -1.57790303
 O          1.90024197   -1.78097200    0.82998300
 H          0.79308599   -0.57312000    1.94220197
 C          2.29442310   -2.27763891   -0.45629501
 H          3.07537198   -1.65600300   -0.89545202
 H          1.44414794   -2.33166003   -1.13758194
 H          2.67945504   -3.28262591   -0.28048700
