27
wb97x-d4 ma-def2-tzvp(-f) cpcm(dmso) E: -727.02095519979, G: -726.82916813
 C         -1.24331701    0.00835400    0.77468503
 C         -0.94468200    1.51360297    0.67286998
 O         -0.10908900   -0.66335303    1.34454000
 C         -1.75963700   -0.65316600   -0.50115597
 H         -2.02406502   -0.11183200    1.53278005
 C          1.14203405   -0.48940101    0.71579897
 C          1.48215902    0.99012399    0.50967300
 C          0.33601800    1.80110097   -0.09470800
 H          1.67952502    1.40701997    1.50075805
 O          2.67622709    1.13104296   -0.24202800
 O          0.10039900    1.50514495   -1.46920705
 H          0.57692301    2.86482811    0.00910900
 O         -2.04148602    2.24061799    0.14016300
 H         -0.79783303    1.87317097    1.69494402
 H         -2.58705592   -0.05253100   -0.89163798
 O         -2.19374895   -1.99208295   -0.25480300
 H         -0.98365098   -0.71256602   -1.25729001
 H         -2.97668099   -1.95417798    0.30692101
 H         -1.95954704    2.21398902   -0.82277602
 H          0.75219500    1.98078704   -1.99553597
 H          2.61360002    0.50884098   -0.97984999
 O          1.25015497   -1.14129901   -0.52171898
 H          1.85807800   -0.93263102    1.41759300
 C          1.27907801   -2.56244993   -0.40834501
 H          0.31865501   -2.94226694   -0.05228500
 H          2.07587600   -2.87502408    0.27607501
 H          1.47986901   -2.95584202   -1.40456998
