27
wb97x-d4 ma-def2-tzvp(-f) cpcm(dmso) E: -727.021354664923, G: -726.82873118
 C         -1.14783895   -0.17698300    0.88971001
 C         -0.99198902    1.32409000    0.61439002
 O          0.07754400   -0.72973502    1.39350605
 C         -1.74260402   -1.00310898   -0.26053300
 H         -1.84743905   -0.28677499    1.72184300
 C          1.26139498   -0.44403601    0.68340403
 C          1.46426499    1.06500602    0.52811801
 C          0.26539201    1.69218397   -0.18180300
 H          1.52641702    1.48353302    1.53477001
 O          2.69247293    1.36291206   -0.10820500
 O          0.21796100    1.34757495   -1.56141305
 H          0.37095901    2.78104496   -0.15815900
 O         -2.18670297    1.76186895   -0.02435700
 H         -0.88769901    1.81919396    1.58746302
 H         -1.28734004   -0.77551198   -1.22553897
 O         -3.15673304   -0.82563502   -0.33171099
 H         -1.57031095   -2.05759192   -0.03978300
 H         -3.30572796    0.11938200   -0.47118601
 H         -2.15902400    2.72171092   -0.11451900
 H          0.39964801    0.40027401   -1.64458001
 H          2.61905694    1.09316504   -1.03288603
 O          1.27230597   -1.01342797   -0.60352099
 H          2.06472993   -0.87748098    1.28723896
 C          1.47251797   -2.42800212   -0.60905498
 H          0.67831701   -2.93885493   -0.05981000
 H          2.44214606   -2.66958308   -0.16259301
 H          1.45827794   -2.74521089   -1.65078902
