27
wb97x-d4 ma-def2-tzvp(-f) cpcm(dmso) E: -727.020495575312, G: -726.82869951
 C         -1.20451403    0.00514700    0.96992898
 C         -1.03357804    1.03656900   -0.14503200
 O         -0.16410600   -0.98821199    0.95059597
 C         -2.53999090   -0.72008502    0.92454398
 H         -1.16663802    0.54363602    1.92673302
 C          1.10685205   -0.57266802    0.51527297
 C          1.33956099    0.90719098    0.78931999
 C          0.27948499    1.80744398    0.09608400
 H          1.24420202    1.04274297    1.86854398
 O          2.66085005    1.28599894    0.45824599
 O          0.73952103    2.32873607   -1.13977206
 H          0.05227900    2.63013196    0.78146100
 O         -1.11076701    0.43922800   -1.43699896
 H         -1.87054205    1.73545206   -0.09168600
 H         -2.59488297   -1.41793799    1.76336098
 O         -2.74940801   -1.47491801   -0.26340601
 H         -3.32959008    0.03120900    1.05366302
 H         -2.37704206   -0.95158798   -0.99106300
 H         -0.27852100   -0.04877800   -1.57050300
 H          1.44440198    2.95672798   -0.94237000
 H          2.79298902    1.07886100   -0.47661000
 O          1.28623199   -0.78145301   -0.87441599
 H          1.83378696   -1.18655503    1.05630100
 C          1.38690805   -2.16398311   -1.22937906
 H          1.59883904   -2.20095611   -2.29715896
 H          0.44990501   -2.68660903   -1.02144694
 H          2.20376801   -2.63533092   -0.67421299
