27
wb97x-d4 ma-def2-tzvp(-f) cpcm(dmso) E: -727.028094175368, G: -726.836801
 C         -1.18172503   -0.28879300    0.35896200
 C         -1.08192599    1.22823799    0.18790600
 O         -0.08411600   -0.93230802   -0.28768700
 C         -2.44062400   -0.88992399   -0.25338200
 H         -1.16177905   -0.51386601    1.43489695
 C          1.15927804   -0.57134300    0.29340401
 C          1.42090702    0.92364597    0.12530801
 C          0.26335901    1.70686495    0.74216998
 H          2.35296011    1.17804897    0.64178401
 O          1.51169395    1.26853395   -1.25587201
 O          0.43218100    3.10589910    0.58451003
 H          0.27276900    1.51284695    1.81825304
 O         -1.26075697    1.63302898   -1.16630602
 H         -1.88247597    1.70482898    0.75829202
 H         -2.44160700   -0.71721900   -1.33291805
 O         -3.62100101   -0.37192699    0.35056001
 H         -2.43537807   -1.96653700   -0.07394000
 H         -3.81394005    0.48678499   -0.04216300
 H         -0.48441899    1.32706594   -1.65981197
 H          0.27377301    3.31130195   -0.34616300
 H          2.15106201    0.67276198   -1.66683102
 O          2.17024994   -1.25854504   -0.36443600
 H          1.14258504   -0.82930899    1.36468005
 C          2.17334700   -2.66353989   -0.09968300
 H          3.06501007   -3.06963396   -0.57537597
 H          1.28392696   -3.14189100   -0.51567400
 H          2.21664596   -2.84501290    0.97951502
