27
wb97x-d4 ma-def2-tzvp(-f) cpcm(dmso) E: -727.019442448774, G: -726.8283569399999
 C         -1.27295005   -0.19326900    0.52631903
 C         -0.97260499    1.15502000   -0.13452600
 O         -0.22497199   -1.12563503    0.26075101
 C         -2.55777502   -0.83923697    0.02568500
 H         -1.35027206   -0.03317500    1.61247802
 C          1.00882304   -0.70323002    0.81942499
 C          1.46909201    0.60967797    0.18159200
 C          0.37405699    1.65385306    0.40209100
 H          2.38821697    0.92905003    0.68558502
 O          1.71192002    0.42919001   -1.21278000
 O          0.81897700    2.85269308   -0.21994400
 H          0.26110700    1.80615306    1.48301303
 O         -1.00614703    1.07326102   -1.55244803
 H         -1.75628495    1.86069405    0.15395400
 H         -2.50094604   -0.97635603   -1.05455303
 O         -3.69384193   -0.01902600    0.27754200
 H         -2.66621304   -1.82084703    0.49796799
 H         -3.85695100   -0.01169400    1.22804701
 H         -0.18738399    0.63325900   -1.82691801
 H          0.07050500    3.45530510   -0.30394700
 H          1.97586000    1.29175198   -1.55957794
 O          1.91887105   -1.75485599    0.77539998
 H          0.86586601   -0.50169700    1.88932705
 C          2.23174596   -2.32099605   -0.50457299
 H          2.63306594   -3.31376004   -0.29930699
 H          2.97895503   -1.72204196   -1.02600205
 H          1.33928204   -2.41408801   -1.12460005
