27
wb97x-d4 ma-def2-tzvp(-f) cpcm(dmso) E: -727.019883286157, G: -726.8283274199999
 C         -1.25625896   -0.22751699    0.53007799
 C         -0.99062902    1.14168596   -0.08749100
 O         -0.19116201   -1.13633800    0.26179999
 C         -2.52874994   -0.88973403    0.01520300
 H         -1.34359097   -0.08191700    1.61710298
 C          1.03920102   -0.68155402    0.81023502
 C          1.46568000    0.61932600    0.11372700
 C          0.36518300    1.65327406    0.39377499
 H          2.40506101    0.95325601    0.56556499
 O          1.70878398    0.45516500   -1.27291906
 O          0.60022902    2.89921093   -0.24798900
 H          0.30155000    1.79071403    1.48056805
 O         -1.01932001    1.01891303   -1.51319695
 H         -1.77521396    1.83026099    0.24023600
 H         -2.46562505   -1.02023804   -1.06525600
 O         -3.67866802   -0.09032700    0.26802501
 H         -2.62195301   -1.87576997    0.48109600
 H         -3.85146594   -0.09965800    1.21682405
 H         -0.90456802    1.90534103   -1.87849104
 H          1.48687100    3.20266795   -0.01848200
 H          0.84227699    0.42841700   -1.70802605
 O          1.96401298   -1.72053695    0.78707802
 H          0.89493901   -0.46154499    1.87657106
 C          2.31652808   -2.28219700   -0.48388401
 H          2.73770905   -3.26428008   -0.26598901
 H          3.05934501   -1.66787696   -0.99379402
 H          1.43983305   -2.39874506   -1.12236702
