27
wb97x-d4 ma-def2-tzvp(-f) cpcm(dmso) E: -727.020646063856, G: -726.82807167
 C         -1.21240401   -0.10654800    0.78867900
 C         -0.98704100    1.40914702    0.71128201
 O         -0.05217800   -0.73729300    1.34755898
 C         -1.64979506   -0.79686999   -0.51002401
 H         -1.99872398   -0.27996099    1.52976501
 C          1.19051600   -0.48495299    0.72533000
 C          1.45040298    1.01313901    0.52857399
 C          0.26566800    1.77170205   -0.07681400
 H          1.62555003    1.43234098    1.52296603
 O          2.63869190    1.21481001   -0.22054100
 O          0.07082100    1.48783004   -1.45719898
 H          0.45287901    2.84495902    0.04835400
 O         -2.13773799    2.10288191    0.25389999
 H         -0.80728799    1.74651504    1.73716700
 H         -0.93815601   -0.62379700   -1.30962801
 O         -2.90664697   -0.27943099   -0.96864998
 H         -1.72241104   -1.87211096   -0.32096800
 H         -3.59921098   -0.58379298   -0.36912000
 H         -2.54988194    1.55728304   -0.43418100
 H          0.80566400    1.87975597   -1.94253099
 H          2.63855195    0.55166799   -0.92495799
 O          1.33081806   -1.12567794   -0.51472402
 H          1.92825794   -0.89187098    1.42585599
 C          1.50462198   -2.53713608   -0.40360701
 H          1.68932796   -2.91445589   -1.40885997
 H          0.60755801   -3.01088595    0.00418200
 H          2.36214709   -2.76724601    0.23819301
