27
wb97x-d4 ma-def2-tzvp(-f) cpcm(dmso) E: -727.01980609177, G: -726.82792335
 C         -1.23598504    0.10030300    0.70546103
 C         -0.86240000    1.58281302    0.52873200
 O         -0.14906800   -0.61259502    1.32230794
 C         -1.79726398   -0.59522700   -0.52638000
 H         -2.02905297    0.05473900    1.45796895
 C          1.14097595   -0.45445499    0.77812600
 C          1.53104401    1.02103901    0.65862697
 C          0.48630500    1.78927004   -0.15141600
 H          1.54555202    1.43354297    1.66931903
 O          2.84254289    1.16982806    0.14624199
 O          0.49544701    1.43630695   -1.53101003
 H          0.72390902    2.85556293   -0.11470600
 O         -1.85206497    2.31263304   -0.18172599
 H         -0.75448102    1.99431300    1.53969502
 H         -2.57271910    0.04771800   -0.95152801
 O         -2.35977292   -1.83713806   -0.09004200
 H         -1.03920102   -0.77609801   -1.28811204
 H         -2.72339201   -2.28304291   -0.86290300
 H         -2.63788795    2.37517810    0.37404901
 H          0.61781502    0.47817701   -1.59763002
 H          2.86632490    0.76370400   -0.72969103
 O          1.28081703   -1.02161705   -0.50476199
 H          1.80379999   -0.97221601    1.47928905
 C          1.18284404   -2.44673109   -0.52024603
 H          1.41853499   -2.76794791   -1.53397703
 H          0.17322800   -2.76874900   -0.25631601
 H          1.90415001   -2.87931108    0.18062600
