27
wb97x-d4 ma-def2-tzvp(-f) cpcm(dmso) E: -727.021225583369, G: -726.82785844
 C         -1.16973495   -0.16406500    0.88149399
 C         -0.99318898    1.34026098    0.58803099
 O          0.03830600   -0.75208700    1.39040506
 C         -1.78733301   -0.97326702   -0.26725501
 H         -1.87244999   -0.25577199    1.71313703
 C          1.22832596   -0.49740100    0.67962301
 C          1.47239006    1.00393200    0.57889801
 C          0.31249800    1.69255996   -0.13150100
 H          1.49726605    1.37994003    1.60786998
 O          2.72035909    1.21213198   -0.05946600
 O          0.23161300    1.39067698   -1.52253199
 H          0.44590700    2.77682900   -0.07126800
 O         -2.09785295    1.83223104   -0.16857199
 H         -0.99306798    1.87035096    1.54371905
 H         -1.34807706   -0.72742403   -1.23662496
 O         -3.20273805   -0.78744400   -0.30297801
 H         -1.61498594   -2.03202510   -0.07010000
 H         -3.34632492    0.16615701   -0.37904301
 H         -1.82001197    1.80260205   -1.09716797
 H          0.50293499    0.46805999   -1.64396799
 H          2.94708705    2.14625907    0.02319800
 O          1.20849502   -1.03424203   -0.61872798
 H          2.01904702   -0.97298098    1.26832795
 C          1.37184000   -2.45272899   -0.65835601
 H          1.33587301   -2.74618292   -1.70651197
 H          0.57302999   -2.95704508   -0.10967800
 H          2.34079409   -2.72932410   -0.23095500
