27
wb97x-d4 ma-def2-tzvp(-f) cpcm(dmso) E: -727.020475389212, G: -726.82760425
 C         -1.10666597   -0.21708301    1.00659299
 C         -1.00746703    1.29207397    0.73901999
 O          0.16240200   -0.74628299    1.41848302
 C         -1.82014704   -1.04660594   -0.07129800
 H         -1.72077799   -0.33981299    1.90222800
 C          1.29403102   -0.44233200    0.62883103
 C          1.45920396    1.07115304    0.48101300
 C          0.20284100    1.72084606   -0.10260500
 H          1.62673998    1.46859503    1.48491704
 O          2.60306096    1.39252698   -0.28861400
 O          0.09971600    1.47236001   -1.49439001
 H          0.30566701    2.80633211   -0.00574200
 O         -2.25124407    1.69848001    0.17909800
 H         -0.86405301    1.77036297    1.71543097
 H         -1.47178698   -2.07686591    0.01078400
 O         -1.63018501   -0.64017498   -1.42892802
 H         -2.88970590   -1.03422999    0.15272100
 H         -2.24812102    0.08542000   -1.58525705
 H         -2.25910306    2.66128111    0.11799000
 H         -0.24765299    0.56876302   -1.61027503
 H          2.36761093    1.20914805   -1.20892000
 O          1.23878002   -1.02096200   -0.64439201
 H          2.13893604   -0.85645700    1.19043398
 C          1.46024704   -2.42840910   -0.63736701
 H          0.69387501   -2.94879007   -0.05654800
 H          2.44686198   -2.65717602   -0.21955100
 H          1.41693997   -2.76216006   -1.67365503
