27
wb97x-d4 ma-def2-tzvp(-f) cpcm(dmso) E: -727.019318431184, G: -726.8274424699999
 C         -1.30502295    0.13497099    0.60694402
 C         -1.05658495    1.56103098    0.09357500
 O         -0.35939601   -0.78631300    0.04580300
 C         -2.68181396   -0.39990199    0.27189001
 H         -1.19763100    0.13197100    1.69861603
 C          0.97527802   -0.58595598    0.48086700
 C          1.23875499    0.89540601    0.81860203
 C          0.45816499    1.78560197   -0.14182299
 H          0.86879700    1.09317195    1.82730699
 O          2.62572289    1.16949797    0.84590501
 O          0.80063599    1.55040705   -1.50887597
 H          0.70528698    2.83055997    0.05102600
 O         -1.77880597    1.86794496   -1.08862805
 H         -1.39681995    2.25249004    0.86950898
 H         -3.43780708    0.31408101    0.60326803
 O         -2.94458389   -1.62774706    0.94789100
 H         -2.77411199   -0.52599102   -0.81055599
 H         -2.27037191   -2.25944304    0.66931701
 H         -1.16411602    1.71397996   -1.82267106
 H          1.00477195    0.61013299   -1.62599397
 H          3.02068210    0.75133002    0.06913500
 O          1.82528400   -0.91704601   -0.58223599
 H          1.18428004   -1.23609602    1.34085500
 C          1.89258695   -2.31908798   -0.85782301
 H          2.66736102   -2.45295596   -1.61131501
 H          0.93784600   -2.68545699   -1.24150801
 H          2.16161203   -2.86658001    0.05092200
