27
wb97x-d4 ma-def2-tzvp(-f) cpcm(dmso) E: -727.020972877049, G: -726.82732732
 C         -1.32122505    0.12870400    0.68075699
 C         -0.94166398    1.32583594   -0.19724600
 O         -0.18297499   -0.54796600    1.27270901
 C         -2.20477700   -0.88829899   -0.02080400
 H         -1.86977804    0.52340400    1.54015994
 C          1.05094600   -0.40430400    0.62495100
 C          1.47879004    1.07716703    0.55667502
 C          0.24941801    2.01314712    0.46462101
 H          2.01403093    1.30803800    1.47919202
 O          2.38819909    1.30558503   -0.51178700
 O          0.59617901    3.23003697   -0.16872101
 H         -0.05889400    2.25879502    1.48499405
 O         -0.72132498    1.02451098   -1.57141101
 H         -1.78918302    2.01489592   -0.18651800
 H         -3.09804010   -0.38458401   -0.39655301
 O         -2.64631605   -1.89798605    0.88361800
 H         -1.68096900   -1.33779204   -0.86859000
 H         -1.85748994   -2.32449102    1.24116600
 H         -0.12921900    0.25858000   -1.62204599
 H          1.25914097    3.00515699   -0.83791900
 H          2.23384905    0.61964202   -1.17688298
 O          1.03269696   -0.90915000   -0.69361401
 H          1.76079297   -0.98442101    1.21985900
 C          1.09554005   -2.33651400   -0.77372599
 H          0.23468401   -2.79237604   -0.27907300
 H          2.02001095   -2.69395709   -0.31162500
 H          1.08757603   -2.59166002   -1.83218801
