27
wb97x-d4 ma-def2-tzvp(-f) cpcm(dmso) E: -727.018907290047, G: -726.8269408799999
 C         -1.17944396   -0.16390400    0.70924300
 C         -1.12606502    1.32195497    0.29608300
 O         -0.17806900   -0.92225498    0.02370800
 C         -2.50549507   -0.83489501    0.37412000
 H         -1.00721300   -0.22989300    1.79059005
 C          1.15269005   -0.59759802    0.39697099
 C          1.29000103    0.90964401    0.70370901
 C          0.30193600    1.69745004   -0.14800701
 H          1.02155995    1.07456994    1.75040495
 O          2.62941504    1.33897603    0.56177503
 O          0.47708499    1.47987795   -1.54855502
 H          0.46155801    2.76575494    0.00544100
 O         -2.05819201    1.65863395   -0.72329003
 H         -1.38760900    1.92481196    1.16872501
 H         -2.58454204   -0.94434500   -0.71215302
 O         -3.61033702   -0.10797600    0.89670801
 H         -2.52888203   -1.82862902    0.82415801
 H         -3.68028212    0.69651902    0.36585301
 H         -1.60228205    1.52639997   -1.56790304
 H          0.65852302    0.54157197   -1.70057499
 H          2.98532510    0.91241002   -0.22947800
 O          1.97259498   -0.87730902   -0.69891101
 H          1.45356905   -1.20825601    1.25876796
 C          2.20786810   -2.27313900   -0.90450102
 H          2.60719609   -2.72477508    0.00896700
 H          2.94192600   -2.35228801   -1.70503604
 H          1.28716600   -2.78331399   -1.19681299
