27
wb97x-d4 ma-def2-tzvp(-f) cpcm(dmso) E: -727.019428509368, G: -726.82683514
 C         -1.20743096   -0.16438900    1.03542101
 C         -1.11113203    1.34889400    0.73324603
 O          0.06981500   -0.71437800    1.40777302
 C         -1.96166897   -1.00779200    0.00360900
 H         -1.78870595   -0.26557001    1.95525706
 C          1.16369796   -0.43267700    0.56562799
 C          1.36519694    1.08005500    0.47850400
 C          0.13037001    1.79650700   -0.04696700
 H          1.54175997    1.42077303    1.50508595
 O          2.44908404    1.44485295   -0.36298400
 O         -0.05187400    1.57560802   -1.43985403
 H          0.25632700    2.87233090    0.12637900
 O         -2.29987311    1.81826496    0.11702200
 H         -1.04922104    1.85541403    1.69928098
 H         -1.72386503   -2.05985093    0.20002601
 O         -1.74698699   -0.67797297   -1.36246800
 H         -3.03037810   -0.87118000    0.17960800
 H         -0.79203600   -0.56165498   -1.48711705
 H         -2.33211493    1.40627205   -0.75912100
 H          0.81939298    1.64787102   -1.85007405
 H          3.25838399    1.04484296   -0.02341100
 O          1.01908898   -0.98460400   -0.71678799
 H          2.02439189   -0.89271402    1.06515205
 C          1.21208405   -2.40089703   -0.74013001
 H          1.06005704   -2.72259903   -1.76973295
 H          0.49502099   -2.90789795   -0.08950200
 H          2.23061490   -2.64750791   -0.42384201
