27
wb97x-d4 ma-def2-tzvp(-f) cpcm(dmso) E: -727.019766777686, G: -726.82682333
 C         -1.18303001   -0.16295300    1.05970395
 C         -1.06078601    1.34362197    0.73615700
 O          0.08907200   -0.73529798    1.41596198
 C         -1.97279596   -1.00435495    0.05354000
 H         -1.74951506   -0.24024200    1.99105000
 C          1.17753100   -0.48642099    0.55769598
 C          1.41064799    1.01511395    0.44578400
 C          0.17858800    1.75529099   -0.06623300
 H          1.62493706    1.36345506    1.46113002
 O          2.52773905    1.24019504   -0.40666899
 O         -0.02039100    1.52517998   -1.45438600
 H          0.32763100    2.83108211    0.09506100
 O         -2.24948502    1.82974505    0.13242701
 H         -0.97382402    1.86137903    1.69448400
 H         -1.75594497   -2.05815506    0.26476800
 O         -1.77055502   -0.70197201   -1.32041800
 H         -3.03521490   -0.83997399    0.24336299
 H         -0.81564099   -0.60551703   -1.46039903
 H         -2.30586696    1.40679705   -0.73715198
 H          0.85881001    1.50509596   -1.85583603
 H          2.88321495    2.11587906   -0.21153000
 O          1.00161099   -1.04826999   -0.71803898
 H          2.03644991   -0.95574898    1.04839003
 C          1.16317701   -2.46862793   -0.72894597
 H          2.18117595   -2.73466206   -0.42721799
 H          0.98607999   -2.79810905   -1.75206494
 H          0.44638801   -2.95253205   -0.06062700
