27
wb97x-d4 ma-def2-tzvp(-f) cpcm(dmso) E: -727.019405743508, G: -726.82681894
 C         -1.14268899   -0.02002900    0.98229599
 C         -0.98584503    1.09927905   -0.04054300
 O         -0.13394400   -1.03143597    0.87564099
 C         -2.49954200   -0.70979398    0.93314499
 H         -1.07823300    0.45251599    1.97191203
 C          1.17541003   -0.60484099    0.55733103
 C          1.37135100    0.86550200    0.90665603
 C          0.42840499    1.74713504    0.07080900
 H          1.12325203    0.98526698    1.96360803
 O          2.71922493    1.26533306    0.75447500
 O          0.98780203    2.01309395   -1.20683503
 H          0.33942899    2.71669412    0.56295902
 O         -1.22839200    0.57612097   -1.34791100
 H         -1.74307895    1.85385895    0.18809800
 H         -2.56072593   -1.42072797    1.76005399
 O         -2.74402189   -1.44445503   -0.25964099
 H         -3.26928401    0.05755900    1.08604503
 H         -2.44723010   -0.88222200   -0.99102002
 H         -1.44242895    1.31236696   -1.93231106
 H          0.95420098    1.17891300   -1.69873405
 H          2.82992792    1.50498796   -0.17662600
 O          1.45915902   -0.75960600   -0.81194901
 H          1.85293305   -1.24255204    1.13706696
 C          1.49583304   -2.12027097   -1.23211098
 H          1.83055496   -2.12457800   -2.26904202
 H          0.50547898   -2.57833004   -1.16567600
 H          2.20245290   -2.68978500   -0.61769801
