27
wb97x-d4 ma-def2-tzvp(-f) cpcm(dmso) E: -727.018235699826, G: -726.82651002
 C         -1.21104896   -0.10174200    0.83044201
 C         -1.00679803    0.94837499   -0.25772199
 O         -0.13436501   -1.05701995    0.86410201
 C         -2.47519493   -0.93251699    0.64822298
 H         -1.26528299    0.41400000    1.79825699
 C          1.14967299   -0.58957702    0.52914602
 C          1.30434704    0.89304101    0.83833498
 C          0.25345299    1.76535797    0.09575900
 H          1.13608897    1.00516105    1.91133296
 O          2.62985206    1.32616901    0.59907597
 O          0.77090597    2.34622693   -1.08949101
 H         -0.05659000    2.55549693    0.78757799
 O         -0.97307497    0.37116900   -1.55174196
 H         -1.86606503    1.62214696   -0.25191200
 H         -2.45413399   -1.42439997   -0.32773900
 O         -3.65240002   -0.14593901    0.80379301
 H         -2.49888396   -1.70084500    1.42349398
 H         -3.83779693    0.29819801   -0.03097000
 H         -0.13163900   -0.10902300   -1.62646699
 H          1.46698701    2.96040511   -0.82724899
 H          2.84347606    1.10478306   -0.31730199
 O          1.44029498   -0.77204102   -0.84463799
 H          1.85677803   -1.18376994    1.11666501
 C          1.63663101   -2.14287210   -1.20350003
 H          1.91080499   -2.15708590   -2.25754595
 H          0.71936101   -2.71798205   -1.05435097
 H          2.44461989   -2.57572007   -0.60557401
