27
wb97x-d4 ma-def2-tzvp(-f) cpcm(dmso) E: -727.018257232467, G: -726.82644764
 C         -1.27855504    0.07120200    0.54557699
 C         -1.06173599    1.50767303    0.04302000
 O         -0.30869201   -0.81391001   -0.02451300
 C         -2.65647197   -0.46723300    0.21304800
 H         -1.16660702    0.06592700    1.63831496
 C          1.01172304   -0.59048003    0.43962899
 C          1.24545801    0.89716297    0.77497000
 C          0.44773501    1.76726794   -0.18907900
 H          0.86876798    1.08957100    1.78236401
 O          2.62631202    1.20056295    0.80371898
 O          0.80052698    1.53652000   -1.55459297
 H          0.66980702    2.81851792   -0.00017500
 O         -1.78723705    1.80045199   -1.14132702
 H         -1.41998899    2.18936205    0.81954598
 H         -3.40503812    0.28597999    0.48078200
 O         -2.92684197   -1.70714104    0.86273199
 H         -2.72920203   -0.65583801   -0.85804802
 H         -2.95937109   -1.54747498    1.81327903
 H         -1.16560197    1.66428995   -1.87308896
 H          1.00742197    0.59712899   -1.67187405
 H          3.03345609    0.76903898    0.04047000
 O          1.88859606   -0.91652900   -0.60273999
 H          1.21134400   -1.23175800    1.30899405
 C          1.98572695   -2.32038093   -0.85925299
 H          1.04015505   -2.71149707   -1.24117303
 H          2.26259708   -2.84995008    0.05774600
 H          2.76571393   -2.44846606   -1.60832500
