27
wb97x-d4 ma-def2-tzvp(-f) cpcm(dmso) E: -727.019279874819, G: -726.82630803
 C         -1.18505597   -0.05417100    0.79708499
 C         -0.94242299    1.17763495   -0.08511600
 O          0.02871100   -0.66658700    1.29290700
 C         -2.04972696   -1.12853098    0.14622501
 H         -1.69869101    0.30223700    1.69558299
 C          1.20816302   -0.42535999    0.57826799
 C          1.53257096    1.08191204    0.51322502
 C          0.24026000    1.93356204    0.51300001
 H          2.10572004    1.33346605    1.40714896
 O          2.35909200    1.38753498   -0.60271603
 O          0.46599400    3.17931509   -0.11980400
 H         -0.01791900    2.14611506    1.55455303
 O         -0.78526503    0.90981501   -1.47334802
 H         -1.82880902    1.81009698   -0.01139700
 H         -1.62391305   -1.44061804   -0.80754298
 O         -3.35820007   -0.63995397   -0.13139200
 H         -2.08420610   -1.99827504    0.81021500
 H         -3.81827307   -0.51580799    0.70716399
 H         -0.14588401    0.18782300   -1.57184100
 H          1.09398198    3.00867891   -0.83667302
 H          2.21695995    0.69894499   -1.26761603
 O          1.14444697   -0.91363299   -0.74566102
 H          1.98954499   -0.96474600    1.11963606
 C          1.26440203   -2.33686495   -0.84242702
 H          0.45591000   -2.83064508   -0.29883501
 H          2.23012209   -2.65589094   -0.44018799
 H          1.20248699   -2.58605003   -1.90045094
