27
wb97x-d4 ma-def2-tzvp(-f) cpcm(dmso) E: -727.017533183876, G: -726.8262962
 C         -1.15275800   -0.10690400    0.76828200
 C         -0.94256401    1.00710702   -0.24708299
 O         -0.10884600   -1.08796000    0.74701899
 C         -2.44680905   -0.88201302    0.55306000
 H         -1.19115400    0.36170799    1.76151097
 C          1.21434903   -0.62030500    0.55087698
 C          1.32864797    0.85473901    0.91643900
 C          0.41443101    1.71960902    0.02892000
 H          1.00537300    0.95585299    1.95530903
 O          2.66794991    1.30369794    0.85631400
 O          1.07121003    2.06774497   -1.17996299
 H          0.22579899    2.65701008    0.55543298
 O         -0.98516297    0.46691501   -1.56557703
 H         -1.75539100    1.72440004   -0.12254700
 H         -2.45935893   -1.29874504   -0.45412499
 O         -3.59066701   -0.04243000    0.66917002
 H         -2.48663712   -1.70540702    1.27339399
 H         -3.69005990    0.20636000    1.59565496
 H         -1.43450606    1.10182905   -2.13308406
 H          0.93518299    1.31855404   -1.77961695
 H          2.82262897    1.55585694   -0.06571700
 O          1.63268602   -0.76971698   -0.78049302
 H          1.85036397   -1.23614800    1.19825804
 C          1.74155104   -2.12920403   -1.18853998
 H          0.75923502   -2.60738206   -1.23134100
 H          2.38635707   -2.68649602   -0.49896100
 H          2.18814802   -2.12867093   -2.18259501
