27
wb97x-d4 ma-def2-tzvp(-f) cpcm(dmso) E: -727.017665070919, G: -726.82625927
 C         -1.22627199    0.03169900    0.68629497
 C         -0.92541099    1.11120701   -0.34402999
 O         -0.22928700   -0.99813098    0.73034000
 C         -2.56600499   -0.63892800    0.43309799
 H         -1.27254701    0.52429903    1.66706896
 C          1.11773002   -0.59802502    0.58573198
 C          1.28701496    0.88110501    0.91149497
 C          0.47689199    1.74061596   -0.07278100
 H          0.90169197    1.04012704    1.92116702
 O          2.64868689    1.26256704    0.92731500
 O          1.20449102    1.94618702   -1.27523899
 H          0.34526300    2.73062801    0.36645001
 O         -1.01982999    0.53706002   -1.64166498
 H         -1.68675399    1.88919604   -0.23282900
 H         -3.31685305    0.13736500    0.24686100
 O         -2.96853209   -1.48237705    1.50968397
 H         -2.49699402   -1.27493203   -0.44918099
 H         -3.14211798   -0.92556500    2.27801299
 H         -1.06385005    1.25610995   -2.28197289
 H          1.23776698    1.08677995   -1.72209203
 H          2.88353801    1.47513700    0.01283900
 O          1.58669496   -0.79738098   -0.72721702
 H          1.70008397   -1.22603500    1.27040195
 C          1.61814904   -2.16678309   -1.11735499
 H          0.60727203   -2.57318401   -1.20596302
 H          2.18541098   -2.75836301   -0.38965401
 H          2.11376810   -2.21037793   -2.08678007
