27
wb97x-d4 ma-def2-tzvp(-f) cpcm(dmso) E: -727.017384066113, G: -726.82595022
 C         -1.15930295   -0.16860300    0.84190601
 C         -1.01863301    1.34427202    0.61922199
 O          0.07899400   -0.70412499    1.33237302
 C         -1.71908498   -0.96352899   -0.34405199
 H         -1.85855806   -0.31584501    1.66996002
 C          1.24048305   -0.45608699    0.56312603
 C          1.41631401    1.04939795    0.33030900
 C          0.17459600    1.71862400   -0.24578699
 H          1.59607196    1.48788595    1.31893694
 O          2.49072504    1.34715295   -0.54864401
 O         -0.05214400    1.35711503   -1.60126305
 H          0.31430799    2.80548000   -0.17964099
 O         -2.20254803    1.89624095    0.03934500
 H         -0.84096402    1.80084503    1.59847105
 H         -1.19451797   -0.72453099   -1.26755798
 O         -3.12321210   -0.73557001   -0.48619699
 H         -1.59398603   -2.02634096   -0.12905400
 H         -3.22627401    0.21832301   -0.60860997
 H         -2.79817796    2.14892793    0.75402802
 H          0.81643301    1.27993906   -2.01657295
 H          3.27429700    0.85964799   -0.26759899
 O          1.25426197   -1.14340496   -0.65313900
 H          2.05972505   -0.81959701    1.19645000
 C          1.47308397   -2.54380703   -0.49777201
 H          0.65817797   -3.01413012    0.05917800
 H          2.42030191   -2.72775292    0.02186500
 H          1.51963198   -2.97052693   -1.49927795
