27
wb97x-d4 ma-def2-tzvp(-f) cpcm(dmso) E: -727.01698408191, G: -726.8258075
 C         -1.31993198    0.12565500    0.71011698
 C         -1.02532303    1.14647996   -0.38241699
 O         -0.32427001   -0.90876597    0.77113402
 C         -2.64975500   -0.57547998    0.51149398
 H         -1.34493995    0.65216798    1.67392802
 C          1.01248801   -0.53698301    0.53720802
 C          1.24187100    0.94403499    0.79738599
 C          0.31370601    1.84679794   -0.05674000
 H          1.01686203    1.12919796    1.84962106
 O          2.60688305    1.27943099    0.60052401
 O          0.92426997    2.23194695   -1.27722096
 H          0.08785700    2.73820710    0.53804499
 O         -1.03904903    0.53794003   -1.66547406
 H         -1.82400799    1.89389396   -0.36646000
 H         -3.44502211    0.17170499    0.46943700
 O         -2.95935798   -1.44354796    1.59973001
 H         -2.63436007   -1.12916303   -0.43184200
 H         -2.27863193   -2.12669396    1.62650096
 H         -0.12467000    0.49428001   -1.97399104
 H          1.84324801    2.44932103   -1.07072604
 H          2.93599296    0.73034698   -0.12505201
 O          1.41995597   -0.78119498   -0.78902102
 H          1.62214398   -1.14931703    1.21236897
 C          1.47078896   -2.16781211   -1.11840105
 H          0.46871901   -2.60444903   -1.11794496
 H          2.10451198   -2.70653510   -0.40524301
 H          1.90002000   -2.24146509   -2.11696100
