27
wb97x-d4 ma-def2-tzvp(-f) cpcm(dmso) E: -727.018029054535, G: -726.82543215
 C         -1.09210706   -0.16133000    0.96578097
 C         -0.98902100    1.16155803    0.20070501
 O          0.18183100   -0.69344401    1.37278903
 C         -1.89634299   -1.22596097    0.22217700
 H         -1.60077703    0.05957300    1.90750599
 C          1.28112805   -0.47786200    0.51719701
 C          1.53245103    1.03682005    0.29018700
 C          0.28423801    1.86921895    0.63415301
 H          2.34006906    1.34770095    0.95450199
 O          1.98519504    1.31981802   -1.02669501
 O          0.38627800    3.16159105    0.05467800
 H          0.23991300    1.99722004    1.71924198
 O         -1.01011896    0.92832297   -1.21116900
 H         -1.85120797    1.77849400    0.47129199
 H         -1.36840796   -1.53437698   -0.68076003
 O         -3.20274901   -0.74874699   -0.09177200
 H         -2.01792908   -2.09420109    0.87245202
 H         -3.10230708   -0.12377800   -0.82099998
 H         -1.12122905    1.78482497   -1.64088702
 H          0.91701901    3.05256200   -0.74892598
 H          1.48291504    0.74885398   -1.62494695
 O          1.13253403   -1.10496795   -0.72476500
 H          2.12605596   -0.92197800    1.05192006
 C          1.30703998   -2.51921296   -0.66617203
 H          0.56637597   -2.98094511   -0.00769100
 H          2.31347299   -2.76348710   -0.30999699
 H          1.17568004   -2.89626598   -1.67979896
