27
wb97x-d4 ma-def2-tzvp(-f) cpcm(dmso) E: -727.026572092841, G: -726.83565432
 C         -1.23048902   -0.03083600    0.36693799
 C         -0.94178098    1.44864094    0.09913400
 O         -0.27379701   -0.84592801   -0.31463400
 C         -2.60001993   -0.46764499   -0.11161200
 H         -1.15597403   -0.21254200    1.44860995
 C          1.04092395   -0.64179701    0.18489499
 C          1.49124801    0.79263800   -0.06335100
 C          0.48446700    1.74323106    0.58280599
 H          2.47456002    0.93188798    0.39847901
 O          1.57294297    1.01144397   -1.47087801
 O          0.91924399    3.06214499    0.28265199
 H          0.50524902    1.57071805    1.66652703
 O         -1.14087796    1.79051006   -1.26566803
 H         -1.64779198    2.05198097    0.67842501
 H         -3.36209297    0.15268700    0.36446401
 O         -2.87631106   -1.81801200    0.25308001
 H         -2.66901708   -0.33823901   -1.19555199
 H         -2.19018102   -2.36830807   -0.14406399
 H         -0.37880999    1.44323504   -1.75375295
 H          0.24022301    3.68494511    0.56798702
 H          1.89057398    1.91486299   -1.59656894
 O          1.90332198   -1.51831400   -0.45370600
 H          1.03584599   -0.82512599    1.27171600
 C          1.74656105   -2.87270808   -0.02538200
 H          0.75566202   -3.25439405   -0.28343999
 H          1.89897501   -2.95010304    1.05670702
 H          2.50734496   -3.45497298   -0.54381299
