27
wb97x-d4 ma-def2-tzvp(-f) cpcm(dmso) E: -727.019266294643, G: -726.8253562
 C         -1.23536801   -0.06847100    0.94630897
 C         -1.04939103    1.11588502   -0.00330600
 O         -0.01477700   -0.78899801    1.23630595
 C         -2.32601309   -1.04489005    0.53286999
 H         -1.55790699    0.36374599    1.90083098
 C          1.16073096   -0.42747599    0.57368398
 C          1.43740797    1.08664405    0.62458998
 C          0.13432799    1.93026304    0.51685601
 H          1.90190196    1.29953802    1.58804095
 O          2.38151097    1.45610499   -0.37257099
 O          0.35287499    3.10668707   -0.23600700
 H         -0.13951699    2.23401904    1.53208303
 O         -0.95417702    0.77582300   -1.38566804
 H         -1.95001602    1.72874701    0.07951500
 H         -2.41247296   -1.81926596    1.29809594
 O         -2.09106493   -1.71412504   -0.69860703
 H         -3.27252698   -0.48928300    0.50361800
 H         -1.93746698   -1.02588797   -1.36069906
 H         -0.17502201    0.20272100   -1.49558401
 H          1.14198697    2.94016504   -0.77412802
 H          2.29859710    0.82067800   -1.09891295
 O          1.16060400   -0.80417800   -0.79138899
 H          1.95807004   -0.97544700    1.08321798
 C          1.27385700   -2.21617007   -0.99995100
 H          1.27966297   -2.37349892   -2.07752895
 H          0.42364699   -2.73454905   -0.55531102
 H          2.21053791   -2.57878089   -0.56635797
