27
wb97x-d4 ma-def2-tzvp(-f) cpcm(dmso) E: -727.019069498831, G: -726.82513524
 C         -1.11254501   -0.18740200    0.85056502
 C         -1.04014599    1.34727204    0.59988600
 O          0.15143900   -0.72047502    1.26321304
 C         -1.71213496   -0.98403502   -0.30933899
 H         -1.75616300   -0.35942400    1.71485603
 C          1.27639306   -0.47930399    0.44747600
 C          1.30844200    0.94195598   -0.14795800
 C          0.41047001    1.83419704    0.69832599
 H          2.33867598    1.30833697   -0.11572600
 O          0.83940601    0.97698402   -1.49750304
 O          0.51705301    3.20240402    0.33932599
 H          0.73937100    1.75287998    1.73638499
 O         -1.61351395    1.74541903   -0.65036500
 H         -1.63327003    1.86108303    1.35658300
 H         -1.15790105   -0.82816398   -1.23817599
 O         -3.09027696   -0.66136599   -0.47843599
 H         -1.65727794   -2.04427695   -0.05680900
 H         -3.11315894    0.26550201   -0.75499803
 H         -0.99814802    1.44739103   -1.34159899
 H         -0.07589000    3.35117292   -0.40950999
 H          1.12419105    0.15495400   -1.92082906
 O          1.38106096   -1.38115799   -0.61936301
 H          2.12617612   -0.60924202    1.12573504
 C          1.63604403   -2.72584295   -0.21433300
 H          0.79112399   -3.12879395    0.34895799
 H          2.54244304   -2.77339792    0.39839000
 H          1.77813697   -3.30667090   -1.12475204
