27
wb97x-d4 ma-def2-tzvp(-f) cpcm(dmso) E: -727.017362876335, G: -726.82491563
 C         -1.18953502   -0.07954500    0.97602600
 C         -1.01362300    1.19492900    0.15456399
 O          0.04858500   -0.72802001    1.32381201
 C         -2.21018291   -1.05730796    0.40523100
 H         -1.60039902    0.24962100    1.93642402
 C          1.19218600   -0.49132600    0.53784502
 C          1.49964702    1.02208602    0.38515401
 C          0.25046799    1.89564800    0.62147999
 H          2.24502206    1.28900695    1.13589096
 O          2.08590698    1.31340206   -0.87681699
 O          0.40895900    3.15461707   -0.01309200
 H          0.15087700    2.07565999    1.69587696
 O         -0.96343398    0.91476798   -1.24885798
 H         -1.87903094    1.83349097    0.35777199
 H         -2.35054207   -1.87133801    1.12028003
 O         -1.85594702   -1.65424395   -0.83278197
 H         -3.16203499   -0.51431900    0.32146299
 H         -1.51487195   -0.94159800   -1.39180899
 H         -1.11125398    1.74218595   -1.72063196
 H          0.99817902    2.99506211   -0.76692498
 H          1.71402299    0.67826498   -1.50641799
 O          1.10809100   -1.05941904   -0.73792398
 H          1.99856901   -0.97768497    1.09540606
 C          1.25856602   -2.47695899   -0.73206598
 H          2.23465896   -2.75228405   -0.31747100
 H          1.19524598   -2.80624390   -1.76866603
 H          0.46187100   -2.94845390   -0.15376300
