27
wb97x-d4 ma-def2-tzvp(-f) cpcm(dmso) E: -727.017447877349, G: -726.82484115
 C         -1.14380503   -0.09626200    0.75751501
 C         -0.89526302    1.25820899    0.07424100
 O          0.04362100   -0.69237101    1.30581403
 C         -1.86792803   -1.09432697   -0.14276700
 H         -1.76950002    0.10386900    1.63291395
 C          1.25434697   -0.50065500    0.60234302
 C          1.57458198    1.01087499    0.41286600
 C          0.33800501    1.87305903    0.71201903
 H          2.36011004    1.28031301    1.12015998
 O          2.10132599    1.31347597   -0.87041497
 O          0.55899400    3.21276212    0.30420500
 H          0.17655200    1.89166200    1.79216897
 O         -0.67082101    1.16679096   -1.33310997
 H         -1.76000404    1.90117800    0.26021001
 H         -1.22620797   -1.38458502   -0.97264302
 O         -3.03319812   -0.50580502   -0.72288299
 H         -2.12176204   -1.98874903    0.43418500
 H         -3.66982198   -0.32632801   -0.02073700
 H         -1.49912798    0.88104099   -1.73779595
 H          1.03687096    3.16539407   -0.53593302
 H          1.49015903    0.93817800   -1.52000797
 O          1.26167703   -1.13453996   -0.64393097
 H          2.00566697   -0.96246201    1.25037301
 C          1.34502494   -2.55451894   -0.54740798
 H          1.38334000   -2.93882298   -1.56625903
 H          0.47323501   -2.97028399   -0.03487300
 H          2.25392699   -2.84709692   -0.01025000
