27
wb97x-d4 ma-def2-tzvp(-f) cpcm(dmso) E: -727.018420564121, G: -726.82445768
 C         -1.21449804    0.05940400    0.98193598
 C         -0.97001898    1.36506200    0.21619600
 O         -0.00372200   -0.65925902    1.29740906
 C         -2.24864411   -0.86980498    0.36211500
 H         -1.61205697    0.35261700    1.95815599
 C          1.11181498   -0.51114202    0.45273700
 C          1.49548101    0.98481297    0.23852199
 C          0.36176401    1.91957200    0.69395101
 H          2.37512589    1.18603206    0.85149097
 O          1.88816094    1.27592003   -1.09251797
 O          0.59890801    3.24262404    0.24197900
 H          0.34433600    1.95343399    1.78608704
 O         -0.91284603    1.24024999   -1.20801103
 H         -1.77824497    2.05575705    0.48046699
 H         -2.34824491   -1.75556195    0.99776202
 O         -1.95029497   -1.25523603   -0.98271799
 H         -3.21112704   -0.35328200    0.33306199
 H         -1.01587498   -1.51893401   -1.00842905
 H         -1.43708301    0.46287900   -1.46284103
 H          1.01821995    3.16420889   -0.62686098
 H          1.13964498    1.02987897   -1.65643406
 O          0.91623503   -1.16016698   -0.78337401
 H          1.92030001   -1.01367795    0.98782700
 C          1.31074297   -2.53785205   -0.75812501
 H          0.75097197   -3.09081888    0.00223000
 H          2.38282394   -2.62068105   -0.55893898
 H          1.08812904   -2.94603491   -1.74367595
