27
wb97x-d4 ma-def2-tzvp(-f) cpcm(dmso) E: -727.016974543186, G: -726.82432409
 C         -1.07475996   -0.03193700    1.07352996
 C         -1.06112003    1.11569297    0.06357000
 O         -0.05473300   -1.01769602    0.87027800
 C         -2.40850210   -0.76682502    1.12739003
 H         -0.93393302    0.42460299    2.06229806
 C          1.19787705   -0.57390100    0.41030401
 C          1.39095795    0.91019100    0.68460298
 C          0.36894801    1.73355699   -0.10786500
 H          1.19827497    1.06893802    1.75101101
 O          2.73221898    1.24055505    0.37270999
 O          0.71325302    1.84411204   -1.48446000
 H          0.35952100    2.75238609    0.28296101
 O         -1.58487403    0.69632000   -1.19148695
 H         -1.72386706    1.88465500    0.47362599
 H         -2.38403106   -1.47978103    1.95437002
 O         -2.71271300   -1.50991297   -0.04673700
 H         -3.19043708   -0.02626900    1.33989298
 H         -2.49926805   -0.93469602   -0.79669201
 H         -0.99125099    1.05773795   -1.86895096
 H          1.13746595    1.00854003   -1.73746502
 H          2.87509608    2.16850710    0.59489298
 O          1.33725798   -0.77267498   -0.97894198
 H          1.95309496   -1.17228603    0.93261200
 C          1.33446300   -2.14607811   -1.36327302
 H          0.35506299   -2.59777498   -1.18840301
 H          2.09750509   -2.69769096   -0.80308300
 H          1.56849205   -2.17827201   -2.42669392
