27
wb97x-d4 ma-def2-tzvp(-f) cpcm(dmso) E: -727.027431130223, G: -726.83563782
 C         -1.16868103   -0.11002800    0.29278401
 C         -0.92939401    1.38323498    0.09418500
 O         -0.14399700   -0.86668801   -0.34962100
 C         -2.50871205   -0.56138998   -0.26054999
 H         -1.14478099   -0.31011400    1.37455404
 C          1.12940097   -0.61672199    0.22966000
 C          1.53709495    0.83516097   -0.00887000
 C          0.47101399    1.75062299    0.59965003
 H          2.49710488    1.01432097    0.48065999
 O          1.72584999    1.12753201   -1.38753903
 O          0.76761699    3.11513209    0.33596501
 H          0.47975400    1.62024701    1.68589795
 O         -1.06840098    1.67117798   -1.30090702
 H         -1.67619205    1.94265497    0.66764998
 H         -3.28346300    0.13324000    0.08257800
 O         -2.82651305   -1.90024698    0.10817700
 H         -2.48159504   -0.53771698   -1.35006404
 H         -2.97824311   -1.92185903    1.06046903
 H         -1.07108498    2.63031912   -1.40565503
 H          1.18723702    3.15152597   -0.53481799
 H          0.85449302    1.07852495   -1.81094599
 O          2.05892396   -1.46384096   -0.35312399
 H          1.06578505   -0.80134499    1.31515598
 C          1.89676404   -2.82869601    0.03786700
 H          1.93030095   -2.91982388    1.12918699
 H          2.72751689   -3.38097811   -0.40003601
 H          0.95220000   -3.23424411   -0.33231100
