27
wb97x-d4 ma-def2-tzvp(-f) cpcm(dmso) E: -727.014810801583, G: -726.82358782
 C         -1.24194396   -0.13704100    0.46031901
 C         -0.88421297    1.32061505    0.86873901
 O         -0.16911700   -0.74837202   -0.26647201
 C         -2.46810508   -0.25963199   -0.42746401
 H         -1.41281700   -0.72654498    1.37098897
 C          1.07499802   -0.49743900    0.35583401
 C          1.50209200    0.96226001    0.13614801
 C          0.26178300    1.87365496    0.03140200
 H          2.10051703    1.27571106    0.99775201
 O          2.25297499    1.12820005   -1.05907202
 O         -0.19253300    2.00133109   -1.30992305
 H          0.51902503    2.86706495    0.41538301
 O         -2.00489092    2.19562602    0.82465500
 H         -0.56121802    1.31672502    1.91300595
 H         -3.34190106    0.12816399    0.09412000
 O         -2.74156308   -1.62652600   -0.72675103
 H         -2.31743503    0.31394199   -1.34808898
 H         -1.95017302   -1.99394202   -1.13924205
 H         -2.17771697    2.40879893   -0.10147100
 H          0.56452602    1.78676999   -1.87469399
 H          2.70315409    0.29059899   -1.23663902
 O          2.04025006   -1.32267594   -0.20182700
 H          0.97601199   -0.69512802    1.43495595
 C          1.88586199   -2.70390892    0.13646699
 H          0.96531200   -3.10691690   -0.29060200
 H          1.87153995   -2.82604194    1.22421896
 H          2.74558091   -3.22529197   -0.28174499
