27
wb97x-d4 ma-def2-tzvp(-f) cpcm(dmso) E: -727.016267913722, G: -726.82311069
 C         -1.14654696   -0.11768500    0.85168600
 C         -0.93174100    1.09470201   -0.06624100
 O          0.08155800   -0.71016902    1.32614994
 C         -2.02180099   -1.19716597    0.22192000
 H         -1.64532304    0.25297099    1.75154495
 C          1.22577202   -0.52305001    0.52214801
 C          1.56274903    0.98092300    0.41883400
 C          0.27724701    1.84557903    0.46366701
 H          2.15789509    1.21941495    1.30759001
 O          2.32727098    1.24373198   -0.74219000
 O          0.46492299    3.04875207   -0.27721700
 H          0.06652900    2.08460808    1.50959802
 O         -0.84288800    0.77720600   -1.45050395
 H         -1.80719399    1.73972404    0.02746600
 H         -1.52446795   -1.63625503   -0.64520901
 O         -3.29757810   -0.67649901   -0.14062800
 H         -2.19211507   -1.98597002    0.95690697
 H         -3.17816591   -0.15210500   -0.94196898
 H         -0.16045900    0.09307600   -1.55473197
 H          0.83184803    3.71643591    0.31433100
 H          2.06193089    2.13007498   -1.03195703
 O          1.07084501   -1.07607901   -0.75950497
 H          2.02483201   -1.05369496    1.04761899
 C          1.13475394   -2.50398993   -0.76543099
 H          0.95150298   -2.82414794   -1.79024696
 H          0.37934101   -2.93780804   -0.10588700
 H          2.12928009   -2.83257890   -0.44774401
