27
wb97x-d4 ma-def2-tzvp(-f) cpcm(dmso) E: -727.015087535847, G: -726.82302836
 C         -1.16368699   -0.36410901    0.31873900
 C         -0.97252500    1.12592900    0.73489600
 O         -0.01457400   -0.86327302   -0.36651999
 C         -2.35410404   -0.61029702   -0.60039198
 H         -1.31300199   -0.96003801    1.22873104
 C          1.16897094   -0.51997501    0.32887301
 C          1.48368096    0.97363102    0.15866800
 C          0.18179201    1.78194201   -0.01154200
 H          1.99991405    1.31926000    1.06013095
 O          2.28852105    1.22623003   -0.98551500
 O         -0.19732000    1.89379895   -1.37809598
 H          0.33284700    2.78680396    0.39817801
 O         -2.16317201    1.89495897    0.55393398
 H         -0.75387198    1.16743505    1.80456305
 H         -2.31373000    0.05787200   -1.46671999
 O         -3.58898091   -0.47884300    0.09458600
 H         -2.29729700   -1.63971901   -0.95923799
 H         -3.61207700    0.43077499    0.42405301
 H         -2.18015504    2.18776298   -0.36754701
 H          0.61071801    1.76405597   -1.89613104
 H          2.81980801    0.43395299   -1.14596200
 O          2.23003101   -1.25100100   -0.18383101
 H          1.02636099   -0.74639302    1.39755702
 C          2.19211411   -2.64053702    0.15384400
 H          2.15108490   -2.76255298    1.24084401
 H          3.11034608   -3.08071709   -0.23201799
 H          1.32830596   -3.12695503   -0.30408499
