27
wb97x-d4 ma-def2-tzvp(-f) cpcm(dmso) E: -727.014973863913, G: -726.8227970199999
 C         -1.13128495   -0.19910200    0.74561203
 C         -1.03656805    1.34023499    0.59799403
 O          0.09531300   -0.72460198    1.26221097
 C         -1.59602296   -0.94001198   -0.51261699
 H         -1.86159599   -0.42823100    1.52375805
 C          1.26516902   -0.52574903    0.49476200
 C          1.32903600    0.85096902   -0.19382299
 C          0.43112800    1.81134701    0.56765598
 H          2.36425805    1.20517695   -0.13361999
 O          0.91645598    0.82018101   -1.55172002
 O          0.52682102    3.13336897    0.06481400
 H          0.79193503    1.84726000    1.59810901
 O         -1.73117602    1.76318502   -0.58248401
 H         -1.51315200    1.80811203    1.46156502
 H         -1.00996006   -0.65300202   -1.38583398
 O         -2.98689294   -0.71891803   -0.74276501
 H         -1.46637797   -2.00954509   -0.33815399
 H         -3.06619310    0.22509900   -0.93756801
 H         -2.24246812    2.54873204   -0.36150301
 H          0.09559000    3.13104510   -0.80040097
 H          1.31772399    0.03800100   -1.95145595
 O          1.43706501   -1.50060499   -0.49663699
 H          2.07508993   -0.60068601    1.22860098
 C          1.69650996   -2.80373406    0.02206000
 H          2.57154989   -2.78550506    0.68078703
 H          1.89549696   -3.44955611   -0.83249402
 H          0.83254802   -3.18346596    0.57314700
