27
wb97x-d4 ma-def2-tzvp(-f) cpcm(dmso) E: -727.017484543769, G: -726.82271469
 C         -1.14297199   -0.12757599    0.96961802
 C         -1.02880704    1.39112306    0.67852402
 O          0.13878000   -0.70109499    1.27208698
 C         -1.92594695   -0.93246698   -0.06375000
 H         -1.68827605   -0.25297999    1.90744805
 C          1.20260406   -0.52851999    0.36301899
 C          1.31361103    0.91260898   -0.18132401
 C          0.44069001    1.83186805    0.67174101
 H          2.35767794    1.22573304   -0.08004400
 O          0.94023401    0.96873498   -1.55267799
 O          0.53844500    3.17285204    0.21215899
 H          0.81830001    1.80555296    1.69702804
 O         -1.68646395    1.80514205   -0.51705098
 H         -1.53283405    1.93889105    1.47669494
 H         -1.90218306   -1.98462105    0.24087800
 O         -1.47735906   -0.78779900   -1.40893495
 H         -2.96396399   -0.59485400   -0.04323200
 H         -0.54655099   -1.07206094   -1.43853498
 H         -1.46338499    1.15727699   -1.20672703
 H         -0.19409400    3.29604912   -0.41034600
 H          1.09731400    1.87504494   -1.84473205
 O          1.14090502   -1.43267500   -0.71202302
 H          2.08874011   -0.75221401    0.96419901
 C          1.33045006   -2.79378390   -0.31284600
 H          0.51285797   -3.13296294    0.32745999
 H          2.28162599   -2.90122700    0.21808900
 H          1.35060096   -3.38603997   -1.22672403
