27
wb97x-d4 ma-def2-tzvp(-f) cpcm(dmso) E: -727.012615626836, G: -726.82171538
 C         -1.33934295   -0.12480400    0.42985499
 C         -0.84571302    1.19719601    1.02569103
 O         -0.25866899   -1.06417704    0.28688100
 C         -2.06389809   -0.00943300   -0.90434003
 H         -2.04003596   -0.56918901    1.14502704
 C          1.06432796   -0.57312500    0.44990399
 C          1.29403496    0.74556798   -0.27976400
 C          0.33013999    1.82715595    0.25984699
 H          2.33055997    1.04980505   -0.10656300
 O          1.06034601    0.59550101   -1.67290998
 O         -0.14311500    2.68053603   -0.77466500
 H          0.87388498    2.46187210    0.96215600
 O         -1.90751600    2.12475896    1.16414797
 H         -0.49195099    0.97520399    2.03626108
 H         -2.93191004    0.64199299   -0.79431701
 O         -2.55824590   -1.28554106   -1.31268597
 H         -1.40467894    0.39837801   -1.67333901
 H         -1.79394495   -1.86973500   -1.39334702
 H         -1.92138600    2.64778900    0.34905699
 H         -0.05780600    2.20249009   -1.61168301
 H          1.53576899   -0.18907100   -1.97354996
 O          1.93374705   -1.50723505   -0.10807300
 H          1.28636599   -0.45093900    1.52034497
 C          1.99097395   -2.74028111    0.61206198
 H          2.78975391   -3.32869291    0.16227899
 H          1.04640996   -3.28342390    0.53548098
 H          2.22189498   -2.55260110    1.66624105
