27
wb97x-d4 ma-def2-tzvp(-f) cpcm(dmso) E: -727.012810583941, G: -726.8209808299999
 C         -1.20568800    0.05759100    0.59030300
 C         -0.91379797    1.57584703    0.44964799
 O         -0.09066900   -0.61398703    1.18833804
 C         -1.69364905   -0.60995501   -0.69346702
 H         -1.99677896   -0.07154800    1.33404005
 C          1.15523398   -0.54894698    0.52617198
 C          1.42396498    0.80301601   -0.15935101
 C          0.59572297    1.86170697    0.55009401
 H          2.48698592    1.03628194   -0.03091300
 O          1.10117197    0.80067599   -1.54176605
 O          0.88313198    3.16823602    0.08303700
 H          0.87478501    1.83197296    1.60620797
 O         -1.39987397    2.11866498   -0.78087503
 H         -1.39997900    2.10357189    1.27279997
 H         -2.57085395   -0.06655400   -1.05333495
 O         -2.01190209   -1.98485696   -0.47782600
 H         -0.93110102   -0.58141202   -1.46748400
 H         -2.78859305   -2.02599001    0.09203600
 H         -2.22070789    2.58756804   -0.59966302
 H          0.31075501    3.30430889   -0.68620902
 H          1.42654705   -0.03402800   -1.90269399
 O          1.31656897   -1.55087996   -0.44068801
 H          1.88635504   -0.69587898    1.32910800
 C          1.41763198   -2.86269999    0.10848800
 H          0.48621199   -3.15039492    0.60078597
 H          2.24411392   -2.91331911    0.82606900
 H          1.61441398   -3.53899097   -0.72285402
