27
wb97x-d4 ma-def2-tzvp(-f) cpcm(dmso) E: -727.014041563243, G: -726.82082885
 C         -1.35673904    0.03195800    0.83634198
 C         -0.92692697    1.12571299   -0.14645800
 O         -0.26173401   -0.70734203    1.41640699
 C         -2.36399007   -0.95584100    0.25387901
 H         -1.82762694    0.54466897    1.68186700
 C          0.94936401   -0.69344598    0.71575397
 C          1.48593700    0.74723101    0.63449001
 C          0.34870499    1.78196895    0.36851299
 H          1.91170204    0.96720397    1.62020302
 O          2.50287890    0.80806798   -0.34669700
 O          0.78679502    2.78737092   -0.53680700
 H          0.11844200    2.28010392    1.31235898
 O         -0.76499200    0.71877998   -1.50161803
 H         -1.72182405    1.87309599   -0.16506100
 H         -1.95996499   -1.42665005   -0.64195198
 O         -3.57032490   -0.30229101   -0.12912899
 H         -2.55594492   -1.73439503    0.99921399
 H         -4.02477789   -0.01481000    0.67159700
 H         -0.15859000   -0.04419500   -1.50782597
 H          0.51933998    2.49151206   -1.42029095
 H          2.50200009    1.71976805   -0.67312300
 O          0.76602501   -1.27973294   -0.55931503
 H          1.63587904   -1.31532001    1.29576802
 C          1.80345905   -2.17624307   -0.96006501
 H          1.50827897   -2.58371711   -1.92652905
 H          1.89779305   -2.99006391   -0.23416500
 H          2.75683808   -1.65339899   -1.05735695
