27
wb97x-d4 ma-def2-tzvp(-f) cpcm(dmso) E: -727.011337226772, G: -726.81911839
 C         -1.24663401   -0.40482801    0.32632500
 C         -0.95152998    0.98487300    0.90787399
 O         -0.06469300   -1.20911896    0.22397099
 C         -1.96618998   -0.38078499   -1.02516103
 H         -1.91566300   -0.91632599    1.02740002
 C          1.18735301   -0.58288503    0.44792199
 C          1.29472899    0.74440801   -0.29012701
 C          0.24786900    1.72360098    0.26509401
 H          2.30068898    1.14668000   -0.13686700
 O          1.04248703    0.57333702   -1.67720997
 O         -0.18565300    2.64293289   -0.72945398
 H          0.71639001    2.32036495    1.04952204
 O         -2.11735892    1.79779601    0.82915699
 H         -0.71259499    0.85205299    1.96685600
 H         -1.51877606    0.34915599   -1.70474696
 O         -3.36206007   -0.13258700   -0.86348200
 H         -1.86919105   -1.36929500   -1.47779799
 H         -3.43232012    0.67662501   -0.33810401
 H         -1.93229902    2.44870210    0.13134700
 H         -0.09445000    2.20726395   -1.58948302
 H          1.64169204   -0.10507700   -2.01162004
 O          2.17685509   -1.42199194   -0.05822600
 H          1.34309399   -0.42885101    1.52698696
 C          2.31696701   -2.64557505    0.66623402
 H          3.20713997   -3.13931203    0.27817300
 H          1.44709694   -3.28994489    0.52079803
 H          2.44704795   -2.44121289    1.73461902
