27
wb97x-d4 ma-def2-tzvp(-f) cpcm(dmso) E: -727.025489830336, G: -726.83436206
 C         -1.14974201   -0.27582601    0.18549000
 C         -0.99785900    1.23414099    0.04054200
 O         -0.04711700   -0.95810997   -0.40520799
 C         -2.40304995   -0.82653201   -0.48507699
 H         -1.18862998   -0.50102800    1.26154697
 C          1.18203902   -0.62435800    0.23096900
 C          1.49674797    0.85611999    0.00629900
 C          0.34706500    1.66381502    0.62284303
 H          2.42980409    1.09259903    0.52665198
 O          1.70376897    1.14852297   -1.36430895
 O          0.47207400    3.06205702    0.40133601
 H          0.32927799    1.44778204    1.69877696
 O         -1.08457506    1.57321894   -1.34695601
 H         -1.80498302    1.72355199    0.59406102
 H         -2.36742711   -0.61690599   -1.55425704
 O         -3.58566499   -0.21356601    0.01515100
 H         -2.42879391   -1.91142499   -0.34260401
 H         -3.73378611   -0.52652597    0.91514999
 H         -1.00892794    2.53388309   -1.40878296
 H          1.36239505    3.33821392    0.64922100
 H          0.82800698    1.17798400   -1.77964306
 O          2.18961406   -1.40435302   -0.31228700
 H          1.08164799   -0.82220799    1.31109703
 C          2.10057306   -2.77928591    0.06595100
 H          2.99542689   -3.26865411   -0.31708300
 H          1.21355999   -3.24896693   -0.36585599
 H          2.06855607   -2.87414193    1.15698004
