27
wb97x-d4 ma-def2-tzvp(-f) cpcm(dmso) E: -727.026216228695, G: -726.83561751
 C         -1.12839401    0.38801900    0.11513000
 C         -0.40740499    1.62026703   -0.42296800
 O         -0.40788701   -0.77884501   -0.28163701
 C         -2.52938008    0.24150001   -0.44680500
 H         -1.17688000    0.43571299    1.21096897
 C          0.88815802   -0.83436000    0.29540700
 C          1.75243294    0.32399100   -0.19680101
 C          1.04787195    1.65200496    0.05765700
 H          2.69327211    0.31219199    0.36614701
 O          1.99938905    0.23106700   -1.59171796
 O          1.10229397    1.89755297    1.45792603
 H          1.58320200    2.44038296   -0.48622799
 O         -1.09592998    2.77479506    0.05870800
 H         -0.42365101    1.59083605   -1.51680505
 H         -3.12208891    1.11810195   -0.18629500
 O         -3.19791293   -0.89135498    0.10001500
 H         -2.47307491    0.16720100   -1.53993499
 H         -2.65374994   -1.66480803   -0.09320000
 H         -0.84079200    3.52902794   -0.48613101
 H          0.44622499    2.58449602    1.64032102
 H          2.28257608   -0.67391402   -1.77463901
 O          1.49569404   -2.01758599   -0.10731800
 H          0.79509097   -0.79332203    1.39064503
 C          0.93883598   -3.18576002    0.49769801
 H          0.98752397   -3.10677695    1.58888900
 H          1.54274702   -4.02883387    0.16446801
 H         -0.09817000   -3.33158803    0.18650000
