27
wb97x-d4 ma-def2-tzvp(-f) cpcm(dmso) E: -727.025265569741, G: -726.83390277
 C         -1.28156602    0.27131799    0.71746600
 C         -0.72798300    1.59991503    0.22095899
 O         -0.29730701   -0.50201899    1.41802502
 C         -1.97635806   -0.53293002   -0.38093901
 H         -2.03699708    0.49452701    1.47481000
 C          0.93769997   -0.70516998    0.77000302
 C          1.55882204    0.61286098    0.30963501
 C          0.57273299    1.39414203   -0.54475600
 H          1.80611706    1.19904006    1.19594800
 O          2.77967811    0.38956100   -0.38311601
 O          1.08495295    2.68316197   -0.87192798
 H          0.36464101    0.83374602   -1.46300197
 O         -0.51810098    2.43980789    1.35420597
 H         -1.46965206    2.05254889   -0.44632101
 H         -1.37128603   -0.59399098   -1.28773296
 O         -3.21639800    0.12370800   -0.65179503
 H         -2.14712405   -1.54762101   -0.00773900
 H         -3.57748103   -0.24631600   -1.46465695
 H         -0.00190800    3.19746208    1.04912901
 H          1.99338496    2.56443191   -1.17735898
 H          2.61048889   -0.30405101   -1.03582799
 O          0.83755302   -1.53255796   -0.36065000
 H          1.57463300   -1.18213606    1.52239704
 C          0.65743297   -2.91141009   -0.04036800
 H          1.48264301   -3.26711392    0.58573902
 H          0.65148401   -3.45830202   -0.98251700
 H         -0.29010299   -3.07261300    0.48039100
