27
wb97x-d4 ma-def2-tzvp(-f) cpcm(dmso) E: -727.02655922512, G: -726.83354417
 C         -1.24028301    0.37871501    0.77441800
 C         -0.65408897    1.65635204    0.17327400
 O         -0.23014200   -0.44677699    1.38278794
 C         -2.17912197   -0.38161299   -0.16275799
 H         -1.86241102    0.67790002    1.62271297
 C          0.92599499   -0.71710598    0.63651401
 C          1.58525395    0.55255097    0.09220300
 C          0.58086699    1.39740705   -0.68899202
 H          1.94187295    1.12855899    0.94867098
 O          2.73207402    0.21920100   -0.67373300
 O          1.15000200    2.62682199   -1.11766803
 H          0.28215000    0.86612499   -1.59256303
 O         -0.22190100    2.55173802    1.20380998
 H         -1.42190099    2.13906193   -0.43984100
 H         -2.43485808   -1.33413899    0.31700799
 O         -1.71084094   -0.59003800   -1.48883998
 H         -3.09447908    0.20829800   -0.25231400
 H         -0.87305701   -1.07477105   -1.41704094
 H         -0.99710900    2.98636198    1.57606900
 H          1.17562103    3.20259404   -0.34075800
 H          2.46228409   -0.45135099   -1.31554401
 O          0.68195999   -1.57270896   -0.46406800
 H          1.60502803   -1.22123301    1.33057404
 C          0.48498699   -2.94006896   -0.08699200
 H         -0.42241400   -3.05009389    0.51252902
 H          1.34798396   -3.30101395    0.48004499
 H          0.38652799   -3.51077104   -1.00950396
