27
wb97x-d4 ma-def2-tzvp(-f) cpcm(dmso) E: -727.025935276681, G: -726.83312007
 C         -1.26738000    0.29417399    0.91655397
 C         -0.80290800    1.60894001    0.29493800
 O         -0.17247200   -0.50884700    1.39897704
 C         -2.26315808   -0.48219299    0.05655400
 H         -1.80870795    0.55328798    1.83006597
 C          0.91655898   -0.72103900    0.53245199
 C          1.46492505    0.61328900    0.02123700
 C          0.37151799    1.41400194   -0.65991801
 H          1.81080496    1.16763496    0.89846200
 O          2.52769709    0.44938701   -0.90768403
 O          0.84122902    2.71211100   -1.01831102
 H          0.02879200    0.88565803   -1.55274498
 O         -0.42709899    2.47861600    1.36158597
 H         -1.64225698    2.04423690   -0.26014301
 H         -2.43401694   -1.45470703    0.53369200
 O         -1.91537201   -0.64184499   -1.31242597
 H         -3.20521688    0.07113100    0.07029700
 H         -1.04586303   -1.07444704   -1.33054304
 H          0.07128200    3.20532894    0.96405602
 H          1.70897102    2.60041189   -1.42745304
 H          3.34448600    0.29671100   -0.41887799
 O          0.59052998   -1.54555500   -0.56252700
 H          1.67112803   -1.22543800    1.14519095
 C          0.43715701   -2.92217803   -0.20104501
 H          0.23854300   -3.46903396   -1.12201202
 H         -0.39745301   -3.05522394    0.49216801
 H          1.35827994   -3.29441190    0.25745600
