27
wb97x-d4 ma-def2-tzvp(-f) cpcm(dmso) E: -727.02440276251, G: -726.83288089
 C         -1.15685403    0.31159499    0.33337399
 C         -0.62339199    1.58685398   -0.32614800
 O         -0.42565700   -0.81262302   -0.16204000
 C         -2.62285089    0.05379300    0.03641700
 H         -1.04480195    0.37643600    1.42645204
 C          0.94872302   -0.75801003    0.18582000
 C          1.63149905    0.45854899   -0.43689200
 C          0.87991297    1.74268401   -0.08422900
 H          2.64991093    0.52209300   -0.03587800
 O          1.65057504    0.36212599   -1.85355604
 O          1.14335597    2.17212200    1.25171196
 H          1.25866199    2.54564190   -0.71968299
 O         -1.32221305    2.73624110    0.12825499
 H         -0.79500502    1.50980103   -1.40065098
 H         -2.93197203   -0.86016500    0.55567700
 O         -2.89103103   -0.04708100   -1.35913599
 H         -3.21515894    0.88760000    0.41404501
 H         -2.37838197   -0.78836101   -1.70354295
 H         -0.92577499    2.99070001    0.97300500
 H          0.94324398    1.46986306    1.88227606
 H          1.94706500   -0.52881700   -2.07976508
 O          1.57783794   -1.89179206   -0.31061101
 H          1.03372097   -0.72453201    1.28436995
 C          1.22462499   -3.09566212    0.37497100
 H          1.44946599   -3.00224400    1.44258296
 H          1.82935798   -3.89109492   -0.05844000
 H          0.16513599   -3.32571793    0.24161500
