27
wb97x-d4 ma-def2-tzvp(-f) cpcm(dmso) E: -727.024255540762, G: -726.83243241
 C         -1.34943295    0.59715199    0.40325099
 C         -0.56923503    1.79544103   -0.12103800
 O         -0.53388798   -0.23849700    1.24686694
 C         -2.04592705   -0.17952400   -0.71083200
 H         -2.12321091    0.96717399    1.08021700
 C          0.71981901   -0.64881599    0.73923999
 C          1.55702806    0.52671498    0.22513500
 C          0.75836200    1.37873495   -0.75849301
 H          1.83482206    1.14217103    1.08498394
 O          2.77343297    0.04627600   -0.32203001
 O          1.48686802    2.52561593   -1.17260003
 H          0.55893999    0.79703897   -1.66220295
 O         -0.33251399    2.75902200    0.90980500
 H         -1.17255795    2.31259394   -0.87063003
 H         -2.75774503    0.49292001   -1.19471395
 O         -2.80326295   -1.26539695   -0.18853800
 H         -1.33498204   -0.53285402   -1.46077704
 H         -2.20784211   -1.80831301    0.34117499
 H         -0.08273700    2.29726911    1.72005296
 H          1.46413398    3.14861488   -0.43273601
 H          2.54162192   -0.66524303   -0.93476099
 O          0.60214901   -1.57396305   -0.31228399
 H          1.22696805   -1.11620700    1.58882105
 C          0.47182700   -2.92669106    0.12577800
 H         -0.37284601   -3.04309297    0.81147403
 H          1.38818300   -3.25396395    0.62715101
 H          0.30202401   -3.53417993   -0.76231402
