27
wb97x-d4 ma-def2-tzvp(-f) cpcm(dmso) E: -727.025679724024, G: -726.83557816
 C         -1.06883800    0.30666900    0.44515601
 C         -0.49882701    1.58282495   -0.17888901
 O         -0.42425701   -0.82456201   -0.14420900
 C         -2.55873895    0.13239700    0.21683900
 H         -0.88561302    0.31955901    1.52778399
 C          0.96702898   -0.85149598    0.13920000
 C          1.67650294    0.35339800   -0.47186401
 C          1.01599705    1.64421999   -0.00227100
 H          2.71714306    0.34635201   -0.12705100
 O          1.61469603    0.32785299   -1.88994205
 O          1.36515605    1.81030500    1.36894095
 H          1.40793502    2.47790599   -0.59613299
 O         -1.02826095    2.74678707    0.45322600
 H         -0.72395498    1.58783400   -1.24808705
 H         -2.87820292   -0.80303597    0.68922299
 O         -2.90914011    0.14323699   -1.16440499
 H         -3.10105801    0.95440400    0.68735802
 H         -2.44233799   -0.58684999   -1.58884001
 H         -1.89649701    2.93834090    0.08336200
 H          0.84058601    2.54546690    1.71019495
 H          1.86755002   -0.55971199   -2.17389894
 O          1.51068199   -1.99646294   -0.43030101
 H          1.10731494   -0.85179901    1.23014402
 C          1.14250696   -3.20187712    0.24334200
 H          1.68075895   -4.01246786   -0.24626000
 H          0.06693600   -3.37883306    0.16991600
 H          1.43493295   -3.15045810    1.29746699
