27
wb97x-d4 ma-def2-tzvp(-f) cpcm(dmso) E: -727.022808142835, G: -726.83208694
 C         -1.19105601    0.25744399    0.78806001
 C         -0.61059499    1.55414903    0.23842800
 O         -0.20103000   -0.55271697    1.43567300
 C         -1.99330795   -0.51538998   -0.25947300
 H         -1.88731205    0.52131402    1.58794105
 C          0.97303301   -0.82953399    0.69806999
 C          1.63348699    0.46903101    0.24519201
 C          0.65884697    1.29404700   -0.57392800
 H          1.88792002    1.02801001    1.15209305
 O          2.81186604    0.15658399   -0.48224199
 O          1.31300497    2.52687407   -0.88615102
 H          0.40956700    0.75960398   -1.49420798
 O         -0.32778299    2.41472197    1.33906102
 H         -1.36348200    2.01670289   -0.41038200
 H         -1.46322799   -0.58257502   -1.21167195
 O         -3.22902489    0.18470000   -0.42537999
 H         -2.17010093   -1.52821100    0.11488000
 H         -3.66676688   -0.16559599   -1.20891297
 H          0.22054800    3.13234997    0.99425101
 H          0.90692699    2.89782190   -1.67820406
 H          3.18692088    0.99568897   -0.77743798
 O          0.73024398   -1.63148797   -0.42230999
 H          1.62647295   -1.35680401    1.40168202
 C          0.48198101   -2.99633598   -0.09351200
 H          0.34872699   -3.52987289   -1.03415203
 H         -0.42093900   -3.10157490    0.51392901
 H          1.33508003   -3.41894197    0.44870901
