27
wb97x-d4 ma-def2-tzvp(-f) cpcm(dmso) E: -727.023667151302, G: -726.83200633
 C         -1.14119995    0.29651701    0.66883498
 C         -0.56167299    1.55410004    0.02201000
 O         -0.14700800   -0.47562701    1.35637498
 C         -1.96828401   -0.53943801   -0.31832099
 H         -1.82211995    0.61713600    1.46305704
 C          1.01863801   -0.80482900    0.62516302
 C          1.67155802    0.46215901    0.08191500
 C          0.68721998    1.22918701   -0.79014599
 H          1.93050098    1.08046603    0.94906503
 O          2.84673810    0.11251100   -0.63327402
 O          1.29331005    2.40947509   -1.30578601
 H          0.41734001    0.61868298   -1.65347898
 O         -0.16395000    2.51719499    1.00305605
 H         -1.32082200    1.98726594   -0.63565898
 H         -1.45034301   -0.68217498   -1.26563895
 O         -3.19422007    0.12310700   -0.62676197
 H         -2.15471697   -1.52224803    0.12384600
 H         -3.75184608    0.10573100    0.16037200
 H         -0.94604200    3.00471711    1.28412294
 H          1.27920997    3.05994606   -0.58897698
 H          3.16922402    0.92426401   -1.04555702
 O          0.75932997   -1.67671704   -0.43801001
 H          1.67758799   -1.28907597    1.35422695
 C          0.51348102   -3.01688004   -0.01755900
 H          0.36201200   -3.60936689   -0.91935402
 H         -0.37903199   -3.07955098    0.61084700
 H          1.37511003   -3.40655398    0.53562999
