27
wb97x-d4 ma-def2-tzvp(-f) cpcm(dmso) E: -727.023491873496, G: -726.83149902
 C         -1.24327004    0.32110399    0.52626503
 C         -0.62679499    1.57906497   -0.07530600
 O         -0.29598901   -0.40015301    1.32964003
 C         -1.94455194   -0.55415797   -0.52129900
 H         -2.00884104    0.63596302    1.24119198
 C          0.93140602   -0.74363101    0.70639098
 C          1.61850202    0.51439601    0.18387300
 C          0.70044899    1.26826298   -0.76857400
 H          1.82080102    1.14709902    1.05731404
 O          2.84371591    0.15335800   -0.43306699
 O          1.33061302    2.46055198   -1.22413695
 H          0.51987499    0.65696102   -1.65493798
 O         -0.43546399    2.60172296    0.90784597
 H         -1.32356596    1.99775398   -0.80372399
 H         -1.32978296   -0.70469099   -1.40693402
 O         -3.14384794    0.07535400   -0.96840501
 H         -2.15505910   -1.53130805   -0.07745400
 H         -3.77928901    0.06627200   -0.24262200
 H         -0.09662400    2.19778395    1.71653700
 H          1.25123703    3.10451889   -0.50560600
 H          3.21427011    0.96190703   -0.80919999
 O          0.76690698   -1.64752495   -0.34531301
 H          1.52859294   -1.19785702    1.50439095
 C          0.51078802   -2.98089409    0.09237100
 H          1.33438003   -3.34047890    0.71865702
 H          0.43686199   -3.59894896   -0.80182600
 H         -0.42532101   -3.04243112    0.65392798
