27
wb97x-d4 ma-def2-tzvp(-f) cpcm(dmso) E: -727.022536681296, G: -726.83140214
 C         -1.28099501    0.41418600    0.64340597
 C         -0.63892400    1.69421303    0.11811400
 O         -0.33860499   -0.43339199    1.31695902
 C         -2.09136605   -0.30215400   -0.42919299
 H         -1.97843802    0.70577902    1.43298399
 C          0.87353402   -0.72738099    0.64790899
 C          1.57163203    0.56513602    0.21741700
 C          0.64259201    1.39395106   -0.64945799
 H          1.79886699    1.12793005    1.12697995
 O          2.76299095    0.32766399   -0.52209800
 O          1.23801506    2.64329791   -0.98933101
 H          0.39713800    0.83641303   -1.56011605
 O         -0.36832201    2.53570294    1.23672700
 H         -1.34583795    2.19363189   -0.55463499
 H         -2.79608798    0.42336801   -0.85242701
 O         -2.79831696   -1.37406397    0.19416700
 H         -1.45118105   -0.67802000   -1.22947204
 H         -3.24294305   -1.87673700   -0.49708200
 H          0.22135800    3.23421192    0.92277801
 H          2.15723610    2.46510410   -1.22719204
 H          3.48350310    0.16976801    0.09831100
 O          0.70637000   -1.54515100   -0.47410101
 H          1.47689199   -1.25018406    1.40006804
 C          0.32017300   -2.87771797   -0.14480101
 H         -0.67853999   -2.89804912    0.29679599
 H          1.04015100   -3.32192993    0.55232197
 H          0.31910801   -3.44557691   -1.07503104
