27
wb97x-d4 ma-def2-tzvp(-f) cpcm(dmso) E: -727.021115841707, G: -726.83085159
 C         -1.11561894    0.22448100    0.06852900
 C         -0.47049701    1.49267304   -0.48618999
 O         -0.32417700   -0.88936698   -0.34393400
 C         -2.53333092   -0.02371600   -0.45050001
 H         -1.14295197    0.27040800    1.16598296
 C          0.97583401   -0.86170602    0.22724301
 C          1.76884902    0.34766701   -0.26204300
 C          0.97935301    1.62652194   -0.00959200
 H          2.70567107    0.39500901    0.30577499
 O          2.02743912    0.27035999   -1.65527201
 O          1.02046502    1.88295102    1.38910902
 H          1.45957994    2.44569397   -0.55992502
 O         -1.22355497    2.61944008   -0.03909300
 H         -0.48362100    1.43265998   -1.57907796
 H         -2.64742208    0.38220599   -1.45798397
 O         -3.53734803    0.59462702    0.34605801
 H         -2.68869495   -1.10705900   -0.49453601
 H         -3.54153109    0.16314600    1.20843506
 H         -0.98803598    3.37389112   -0.59240800
 H          0.31767699    2.52289295    1.56843996
 H          2.40293002   -0.60188901   -1.83034503
 O          1.65400898   -2.00571489   -0.17379500
 H          0.88096499   -0.82521701    1.32282996
 C          1.20217896   -3.20028210    0.46534100
 H          0.16653800   -3.42108107    0.19542600
 H          1.28599203   -3.10355401    1.55290401
 H          1.84930396   -4.00504589    0.11862400
