27
wb97x-d4 ma-def2-tzvp(-f) cpcm(dmso) E: -727.021001669253, G: -726.8304829699999
 C         -1.04722095    0.52065200    0.75815201
 C         -0.45609200    1.12532198   -0.50999898
 O         -0.42101401   -0.74161202    1.05003500
 C         -2.53600502    0.24256100    0.66174603
 H         -0.88256502    1.20838201    1.59799504
 C          0.91813499   -0.91627997    0.63618201
 C          1.68024802    0.40027201    0.64475203
 C          1.04859400    1.41091704   -0.31719500
 H          1.61273706    0.81306201    1.65339398
 O          3.06073093    0.19031000    0.39273599
 O          1.24924397    2.70843101    0.23113500
 H          1.55039704    1.33915305   -1.28927195
 O         -1.14916003    2.33743310   -0.80116600
 H         -0.58235800    0.41483301   -1.32656395
 H         -2.87383294   -0.18773700    1.61133397
 O         -2.85923600   -0.61998802   -0.42399901
 H         -3.06773090    1.17929995    0.49560800
 H         -2.39315104   -1.45182097   -0.27607399
 H         -1.23004997    2.42015910   -1.75787699
 H          0.56002402    3.26937890   -0.15389401
 H          3.13259411   -0.27431601   -0.45155999
 O          1.01751304   -1.44340205   -0.66378498
 H          1.35849297   -1.62102699    1.34964204
 C          0.64416301   -2.81650400   -0.75145203
 H         -0.41903901   -2.95139194   -0.53511399
 H          1.23542702   -3.41853309   -0.05256900
 H          0.84915698   -3.13755012   -1.77218997
