27
wb97x-d4 ma-def2-tzvp(-f) cpcm(dmso) E: -727.027801804009, G: -726.8347305899999
 C         -1.31321394    0.29620501    0.86974901
 C         -0.79796499    1.62669897    0.32848600
 O         -0.25982401   -0.52558899    1.41102695
 C         -2.24181604   -0.45487601   -0.08281200
 H         -1.92312706    0.52961600    1.74631906
 C          0.89876801   -0.70582098    0.64091402
 C          1.48454702    0.62566900    0.17636700
 C          0.43551299    1.45141697   -0.55182099
 H          1.81116998    1.17029095    1.06370294
 O          2.64159012    0.43261299   -0.62498897
 O          0.93096900    2.75624108   -0.84577698
 H          0.14758000    0.94823098   -1.47853994
 O         -0.48421800    2.45163894    1.45023501
 H         -1.59585202    2.09156394   -0.26294699
 H         -2.45641708   -1.43401206    0.36213899
 O         -1.78829706   -0.59571999   -1.42274404
 H         -3.17786407    0.10627500   -0.13437900
 H         -0.92525101   -1.03797400   -1.38371205
 H          0.03946800    3.19065595    1.11250997
 H          1.81618404    2.65299010   -1.21777403
 H          2.41300392   -0.20946200   -1.31117499
 O          0.68355000   -1.50379896   -0.50658900
 H          1.60521400   -1.21836603    1.30065596
 C          0.53984398   -2.89721298   -0.20617200
 H          0.44683400   -3.41695189   -1.15874398
 H         -0.35390800   -3.07217002    0.39817101
 H          1.42351604   -3.25815105    0.32789800
