27
wb97x-d4 ma-def2-tzvp(-f) cpcm(dmso) E: -727.022015816939, G: -726.83039619
 C         -1.39010406    0.67665201    0.53463799
 C         -0.52683401    1.77557802   -0.08168700
 O         -0.62685102   -0.20192599    1.37641096
 C         -2.18845296   -0.06622000   -0.54458803
 H         -2.09764695    1.13903701    1.22683096
 C          0.51776999   -0.79032898    0.81219602
 C          1.44840503    0.28996700    0.26282200
 C          0.71939200    1.18193197   -0.73236901
 H          1.76743495    0.90039098    1.11588895
 O          2.57070303   -0.34693801   -0.32968599
 O          1.58693302    2.19911408   -1.22089505
 H          0.43087301    0.58605897   -1.59975803
 O         -0.06884300    2.70409703    0.90341198
 H         -1.11292899    2.30169010   -0.84323901
 H         -2.98766804    0.59646398   -0.88443798
 O         -2.80389690   -1.23968697   -0.03617800
 H         -1.56136501   -0.31157199   -1.40585303
 H         -2.07785606   -1.83451700    0.19652700
 H         -0.78499198    3.31877089    1.09817898
 H          1.63978696    2.87365890   -0.52898800
 H          3.11328101    0.34982100   -0.72019500
 O          0.14429399   -1.71635103   -0.18797199
 H          1.01118100   -1.31780100    1.63351500
 C          0.71747601   -3.01417589   -0.03181500
 H          1.80315602   -2.97997308   -0.15461899
 H          0.28530100   -3.64406204   -0.80921799
 H          0.47145101   -3.42967892    0.95107901
