27
wb97x-d4 ma-def2-tzvp(-f) cpcm(dmso) E: -727.020353453993, G: -726.83008931
 C         -1.17080498    0.48542899    0.42317700
 C         -0.42757401    1.01979697   -0.80086499
 O         -0.55110401   -0.70884699    0.93390602
 C         -2.60418391    0.10998700    0.09697500
 H         -1.16815901    1.24649894    1.21482503
 C          0.83399898   -0.86119503    0.72147697
 C          1.54347205    0.48422301    0.70058900
 C          1.03709197    1.36154699   -0.44706899
 H          1.30887997    0.99275500    1.63872004
 O          2.95233989    0.32366300    0.67788100
 O          1.13962698    2.72377706   -0.02283600
 H          1.66388905    1.20510495   -1.32765698
 O         -1.09506202    2.14530897   -1.34439600
 H         -0.42829800    0.24672601   -1.57097602
 H         -3.14393210    0.99118900   -0.24844500
 O         -3.29648900   -0.37806299    1.24347794
 H         -2.60353589   -0.64157897   -0.70262098
 H         -2.81728792   -1.15450394    1.55775595
 H         -0.80305600    2.91160393   -0.82944298
 H          1.48992097    3.24799299   -0.75103998
 H          3.16838694   -0.23302899   -0.08202700
 O          1.12656200   -1.50153899   -0.49596700
 H          1.19557202   -1.47678101    1.55245495
 C          0.73208499   -2.87142611   -0.52124202
 H         -0.35561299   -2.96559310   -0.46379399
 H          1.18920696   -3.41650891    0.31221700
 H          1.08406794   -3.28653789   -1.46507800
