27
wb97x-d4 ma-def2-tzvp(-f) cpcm(dmso) E: -727.019939248317, G: -726.82965834
 C         -1.36467195    0.21469501    0.26380599
 C         -0.63971198    1.56775498    0.34785700
 O         -0.52388000   -0.81431299   -0.26895401
 C         -2.57903600    0.29050201   -0.64355397
 H         -1.67597795   -0.06812500    1.27699304
 C          0.77079803   -0.76459998    0.31717300
 C          1.54632902    0.45072901   -0.21642300
 C          0.56428999    1.56442404   -0.57876903
 H          2.22086406    0.79956299    0.57283002
 O          2.28405309    0.15816900   -1.39700198
 O          1.16252995    2.85516310   -0.50779301
 H          0.20723000    1.36919701   -1.59618700
 O         -0.24784601    1.78772902    1.70368004
 H         -1.32054806    2.36609411    0.03139200
 H         -3.28506398    1.01533103   -0.23433900
 O         -3.26198411   -0.95455801   -0.72349900
 H         -2.27087903    0.62884498   -1.64084899
 H         -2.64039803   -1.60410202   -1.07418203
 H          0.25225201    2.61354494    1.72754097
 H          1.94075894    2.86119103   -1.07778394
 H          2.85419512   -0.59696198   -1.20582402
 O          1.46361005   -1.92070901   -0.00476600
 H          0.65418601   -0.67447901    1.40624106
 C          1.04304695   -3.06391501    0.74266201
 H          1.68259597   -3.89113212    0.43747899
 H          0.00009200   -3.30848908    0.52665102
 H          1.16316402   -2.88154793    1.81562102
