27
wb97x-d4 ma-def2-tzvp(-f) cpcm(dmso) E: -727.019794694123, G: -726.82940864
 C         -1.28838098    0.40693399    0.37838501
 C         -0.69211400    1.61729503   -0.35732099
 O         -0.61793703   -0.79551703   -0.00321600
 C         -2.75586700    0.21335000    0.05829000
 H         -1.17345297    0.56757402    1.45722902
 C          0.72768903   -0.87367898    0.45641199
 C          1.39020205    0.51752102    0.42898300
 C          0.76952702    1.31417096   -0.71209198
 H          1.19222105    1.03347397    1.37109101
 O          2.79986000    0.43020400    0.31263599
 O          1.44406605    2.54707193   -0.91751403
 H          0.79708999    0.71771598   -1.63017404
 O         -0.78965002    2.73382497    0.51754600
 H         -1.25150299    1.81953597   -1.27902305
 H         -3.29542994    1.13325000    0.29283699
 O         -3.34394407   -0.82596099    0.83115101
 H         -2.86377001    0.01046700   -1.01448202
 H         -2.84101796   -1.63167596    0.65966898
 H         -0.13821299    3.38079000    0.21276300
 H          2.38732100    2.37801909   -0.78920501
 H          2.99030995   -0.31040701   -0.28111300
 O          1.43550801   -1.69074202   -0.41995299
 H          0.73844498   -1.30277705    1.46791697
 C          1.14119506   -3.08187890   -0.28066701
 H          0.11179600   -3.29324102   -0.58022499
 H          1.29711699   -3.39988399    0.75537199
 H          1.82893300   -3.61543393   -0.93529600
