27
wb97x-d4 ma-def2-tzvp(-f) cpcm(dmso) E: -727.020169110937, G: -726.82939849
 C         -1.04149199    0.35034600    0.81465203
 C         -0.57318002    0.99592602   -0.49008301
 O         -0.30659100   -0.85482502    1.08432400
 C         -2.51828003   -0.00861500    0.81098002
 H         -0.87988901    1.05786395    1.64040196
 C          1.01181495   -0.92546803    0.59236097
 C          1.66478503    0.44803199    0.55503303
 C          0.91897202    1.38363600   -0.39941001
 H          1.59654295    0.87049198    1.56026995
 O          3.04836702    0.35667300    0.25658101
 O          1.05895805    2.71378303    0.10671500
 H          1.36883700    1.32186401   -1.39291894
 O         -1.37647605    2.11718202   -0.81598699
 H         -0.69332898    0.27513301   -1.29874003
 H         -2.73722911   -0.57654899    1.71777797
 O         -2.90046310   -0.83297199   -0.28733999
 H         -3.10776401    0.91177100    0.83016402
 H         -2.99454904   -0.27498701   -1.06746495
 H         -1.04920101    2.85620904   -0.28346300
 H          1.20371699    3.31051207   -0.63548797
 H          3.13371301   -0.12196000   -0.57859403
 O          1.07779396   -1.44696295   -0.71351397
 H          1.54888201   -1.59183896    1.27652299
 C          0.70353502   -2.82004309   -0.79543602
 H         -0.35963500   -2.94938993   -0.57678503
 H          1.29473305   -3.42098999   -0.09522300
 H          0.90742803   -3.14482188   -1.81533599
