27
wb97x-d4 ma-def2-tzvp(-f) cpcm(dmso) E: -727.019404424593, G: -726.82927495
 C         -0.99216098    0.52105600    0.74653000
 C         -0.42980701    1.09695494   -0.55190802
 O         -0.40504000   -0.76397198    1.02453196
 C         -2.49393201    0.30531701    0.71456802
 H         -0.76608902    1.20985997    1.57088602
 C          0.91364503   -0.98628300    0.55865401
 C          1.69624603    0.31581199    0.55371797
 C          1.08869600    1.31736600   -0.42810801
 H          1.60039997    0.74029499    1.55914199
 O          3.05862689    0.02604700    0.27842000
 O          1.38991296    2.61585999    0.07521200
 H          1.55259395    1.18344402   -1.41062796
 O         -1.03823805    2.34992003   -0.85390300
 H         -0.61219800    0.38623300   -1.35804403
 H         -2.81049109   -0.10736900    1.67910504
 O         -2.90012193   -0.54457301   -0.35345101
 H         -2.99502492    1.26327705    0.56985998
 H         -2.45334697   -1.39087105   -0.22968499
 H         -1.74878895    2.19933200   -1.48614502
 H          0.85869300    3.24257302   -0.43354601
 H          3.57439590    0.81820297    0.46964899
 O          0.93548399   -1.52930796   -0.73478299
 H          1.35886097   -1.69829404    1.26208794
 C          0.48607001   -2.88087702   -0.78575701
 H         -0.57453102   -2.95775795   -0.53084600
 H          1.06861997   -3.50436306   -0.09811000
 H          0.63752502   -3.22788191   -1.80745196
