27
wb97x-d4 ma-def2-tzvp(-f) cpcm(dmso) E: -727.019083575273, G: -726.8289531
 C         -1.15883899    0.44493699    0.40150100
 C         -0.42300999    0.98251700   -0.82718998
 O         -0.55067801   -0.76033998    0.89914298
 C         -2.60010195    0.09097900    0.08620100
 H         -1.14040506    1.20140803    1.19732106
 C          0.83474398   -0.92444700    0.67825198
 C          1.52537000    0.42718899    0.68155700
 C          1.06236005    1.27237296   -0.50178099
 H          1.21028197    0.93771100    1.59908605
 O          2.93018508    0.22853699    0.69554001
 O          1.24632001    2.64177108   -0.12882100
 H          1.67844903    1.04462397   -1.37330699
 O         -1.07170200    2.13639092   -1.33247197
 H         -0.46356201    0.22578400   -1.61244202
 H         -3.12912297    0.98118800   -0.25300699
 O         -3.29062200   -0.38924000    1.23688602
 H         -2.61719298   -0.65836602   -0.71522999
 H         -2.82190704   -1.17445099    1.54503500
 H         -0.74944198    2.88514495   -0.81023699
 H          1.54620695    3.13354301   -0.90144801
 H          3.34526992    1.08703697    0.84279001
 O          1.10367703   -1.55985999   -0.54386401
 H          1.19544899   -1.54818594    1.50358200
 C          0.66279000   -2.91480994   -0.57684797
 H          1.10669696   -3.48278594    0.24882400
 H          0.99581099   -3.33324099   -1.52619004
 H         -0.42702299   -2.97540498   -0.51287800
