27
wb97x-d4 ma-def2-tzvp(-f) cpcm(dmso) E: -727.019104962182, G: -726.8289043999999
 C         -1.13782406    0.46254900    0.44706199
 C         -0.44564900    0.98944801   -0.81107801
 O         -0.53011298   -0.75288498    0.91874200
 C         -2.59699702    0.13342699    0.19171999
 H         -1.07394195    1.21871495    1.24098504
 C          0.84425700   -0.93555897    0.64635301
 C          1.55373394    0.40617499    0.61938399
 C          1.05778205    1.25311196   -0.54909599
 H          1.28332901    0.92524201    1.54622400
 O          2.95467210    0.18610001    0.57847399
 O          1.28355503    2.62048888   -0.19279601
 H          1.63333499    1.00826097   -1.44332004
 O         -1.09523702    2.15622091   -1.28447604
 H         -0.53359401    0.23571999   -1.59556699
 H         -3.12521410    1.03356600   -0.12148400
 O         -3.24621391   -0.34055200    1.36870897
 H         -2.66039491   -0.61181903   -0.61117899
 H         -2.77807689   -1.13470805    1.65394795
 H         -0.73044598    2.89827490   -0.78100902
 H          1.55672705    3.10282111   -0.98121899
 H          3.38821507    1.03637695    0.71960801
 O          1.05917597   -1.57513702   -0.58359098
 H          1.22711396   -1.56267595    1.45902705
 C          0.60843199   -2.92714691   -0.59728801
 H          0.89867800   -3.34802794   -1.55949700
 H         -0.47819000   -2.98072100   -0.48830000
 H          1.08288705   -3.49726510    0.20966400
