27
wb97x-d4 ma-def2-tzvp(-f) cpcm(dmso) E: -727.018779724407, G: -726.82876502
 C         -1.19110799    0.36951399    0.36278099
 C         -0.41095901    0.94099200   -0.82535601
 O         -0.54909599   -0.79991603    0.89726400
 C         -2.59752011   -0.03516500   -0.04092700
 H         -1.24973702    1.13158596    1.15323102
 C          0.84956199   -0.88792199    0.75886202
 C          1.49809599    0.48650500    0.77922499
 C          1.02653599    1.32927704   -0.40634799
 H          1.17972100    0.98717499    1.69662297
 O          2.91160393    0.39298099    0.84804201
 O          1.06903195    2.70217490   -0.00604200
 H          1.69927096    1.17492294   -1.25244999
 O         -1.08481705    2.05261207   -1.38891304
 H         -0.35200199    0.17323400   -1.59885800
 H         -3.08057189    0.80700999   -0.54255497
 O         -3.38187289   -0.48214200    1.06349599
 H         -2.53872204   -0.87409902   -0.73888302
 H         -3.56351304    0.27842101    1.62772095
 H         -0.78939903    2.82793808   -0.88855398
 H          1.48873198    3.21535611   -0.70455003
 H          3.20274496   -0.15102100    0.10431900
 O          1.23563898   -1.50534594   -0.44624099
 H          1.19528902   -1.49338305    1.60403502
 C          0.91367298   -2.89314795   -0.49616599
 H          1.36663604   -3.42171597    0.35023499
 H          1.32178402   -3.28158689   -1.42874706
 H         -0.16900100   -3.04425406   -0.48124200
