27
wb97x-d4 ma-def2-tzvp(-f) cpcm(dmso) E: -727.019209529432, G: -726.82855224
 C         -1.25404799    0.29228601    0.64906299
 C         -0.77950799    1.57216096   -0.05913600
 O         -0.58469701   -0.85682702    0.12869900
 C         -2.74196911    0.04019700    0.49083701
 H         -1.03844297    0.39943099    1.71969903
 C          0.81070399   -0.89909798    0.40356201
 C          1.42119205    0.51540297    0.36811501
 C          0.62639701    1.35088396   -0.62573302
 H          1.33989799    0.97175997    1.35717797
 O          2.80377698    0.48569101    0.05584500
 O          1.22666001    2.62023997   -0.84041703
 H          0.54743803    0.81018001   -1.57550299
 O         -0.78209400    2.60638499    0.91929001
 H         -1.45995700    1.83164096   -0.87632799
 H         -3.02811909   -0.82340300    1.10097396
 O         -3.11493993   -0.16080500   -0.86900002
 H         -3.29014397    0.91532999    0.84593099
 H         -2.64583492   -0.94241399   -1.18550599
 H         -0.26064700    3.33412790    0.55467999
 H          2.18176007    2.47659302   -0.88041598
 H          2.93240404   -0.22253799   -0.59167302
 O          1.42309701   -1.64693999   -0.59881997
 H          0.96839899   -1.37699902    1.38028204
 C          1.20712900   -3.05491209   -0.48298499
 H          0.15852500   -3.30362296   -0.66417998
 H          1.50143003   -3.40277100    0.51265198
 H          1.83159101   -3.53197908   -1.23710895
