27
wb97x-d4 ma-def2-tzvp(-f) cpcm(dmso) E: -727.01950259622, G: -726.82841322
 C         -1.06549001    0.22043701    0.70591003
 C         -0.61272299    0.85977799   -0.60892397
 O         -0.26348999   -0.92620599    1.02457595
 C         -2.50532103   -0.27979001    0.64198202
 H         -0.98351902    0.95910603    1.51442897
 C          1.05689800   -0.94529098    0.51511800
 C          1.62460995    0.46895900    0.47148600
 C          0.85276097    1.33465803   -0.51790100
 H          1.47990000    0.89679801    1.46959698
 O          2.99862099    0.49488300    0.11904900
 O          0.88767701    2.69098091   -0.06341600
 H          1.32107794    1.26348698   -1.50103903
 O         -1.47217202    1.93573797   -0.96445203
 H         -0.69123501    0.11148800   -1.39841294
 H         -2.63101912   -0.89607102   -0.25805700
 O         -3.44995594    0.78347301    0.67051500
 H         -2.69867992   -0.90616000    1.51505899
 H         -3.16134596    1.41999900   -0.00059200
 H         -1.08443499    2.73055911   -0.56478399
 H          1.26329696    3.24164510   -0.75810599
 H          3.51334190    0.18159799    0.87237799
 O          1.12418199   -1.49460697   -0.77332902
 H          1.62569797   -1.57197201    1.21228302
 C          0.77914000   -2.87696099   -0.81360298
 H          0.98448700   -3.22602797   -1.82516694
 H         -0.27951100   -3.02543402   -0.58446997
 H          1.38720596   -3.44506693   -0.10012900
