27
wb97x-d4 ma-def2-tzvp(-f) cpcm(dmso) E: -727.019707786705, G: -726.82832767
 C         -1.14563096    0.52570897    0.39709899
 C         -0.28070199    1.08561897   -0.72561902
 O         -0.53299803   -0.60576397    1.04256999
 C         -2.49483895    0.05206100   -0.11515900
 H         -1.29583502    1.30451500    1.15439200
 C          0.83936101   -0.83416802    0.82397300
 C          1.62592900    0.46803200    0.84859198
 C          1.12888598    1.44880903   -0.22123800
 H          1.45331395    0.92941898    1.82271898
 O          3.02124810    0.22223300    0.76476198
 O          1.13356495    2.74993896    0.35594901
 H          1.81848896    1.41948402   -1.07320297
 O         -0.93129301    2.25302100   -1.22818100
 H         -0.18982901    0.33842900   -1.51547694
 H         -3.03740501    0.89079899   -0.55095899
 O         -3.30521011   -0.46486500    0.93601400
 H         -2.33577609   -0.70864302   -0.89000398
 H         -2.82463598   -1.20305800    1.33031702
 H         -0.75344002    2.31734300   -2.17346811
 H          0.55234599    3.29139495   -0.19761200
 H          3.17476296   -0.30288801   -0.03173200
 O          1.10446405   -1.46053898   -0.40643299
 H          1.15259695   -1.48932695    1.64383805
 C          0.61805302   -2.79931092   -0.47601900
 H          1.03164506   -3.39963198    0.34193000
 H          0.94688702   -3.20753002   -1.43111098
 H         -0.47395101   -2.82108307   -0.42593899
