27
wb97x-d4 ma-def2-tzvp(-f) cpcm(dmso) E: -727.025755773796, G: -726.83445831
 C         -1.18029296    0.10686200    0.12219800
 C         -0.64912701    1.39072001   -0.52434802
 O         -0.34269699   -0.97885799   -0.26780999
 C         -2.59084797   -0.23686200   -0.34080401
 H         -1.17716706    0.21148799    1.21566999
 C          0.97875500   -0.83084100    0.23429801
 C          1.65871704    0.40029499   -0.35812801
 C          0.80047899    1.64364398   -0.12396500
 H          2.62129998    0.53484899    0.15070300
 O          1.84469295    0.26664299   -1.75902104
 O          0.78620601    1.98746502    1.26120806
 H          1.20066702    2.47112012   -0.71780902
 O         -1.46133697    2.51489806   -0.18946800
 H         -0.70039099    1.27282095   -1.60889900
 H         -2.62030506   -0.24330300   -1.43821204
 O         -3.56054807    0.66050297    0.18923000
 H         -2.84620595   -1.23690701    0.01524200
 H         -3.21797395    1.55507898    0.04295100
 H         -1.17731404    2.81037092    0.68790197
 H          1.58586204    2.48586106    1.46299195
 H          2.22579694   -0.60639203   -1.91902697
 O          1.71954405   -1.94355297   -0.14404900
 H          0.93448597   -0.74226701    1.33005595
 C          1.35172796   -3.14150810    0.54270297
 H          2.04579401   -3.91528797    0.21711300
 H          0.32986701   -3.43746090    0.29430699
 H          1.44031298   -2.99937892    1.62496901
