27
wb97x-d4 ma-def2-tzvp(-f) cpcm(dmso) E: -727.018663633009, G: -726.82832717
 C         -1.33211005    0.00946700    0.04949800
 C         -0.72788501    1.41325796    0.20336699
 O         -0.35939699   -0.95808500   -0.35146901
 C         -2.42570090   -0.03236200   -1.01154196
 H         -1.75731099   -0.28029299    1.01987600
 C          0.85576397   -0.78606999    0.36720899
 C          1.58475602    0.47530699   -0.12079700
 C          0.55921102    1.50386405   -0.59710503
 H          2.15566397    0.88841200    0.71758598
 O          2.44699597    0.22061400   -1.22360206
 O          1.04550505    2.83857298   -0.48688000
 H          0.32413900    1.27404594   -1.64252102
 O         -0.49050301    1.66195297    1.59098601
 H         -1.43972898    2.15012908   -0.18068200
 H         -2.05346203    0.39107099   -1.94750297
 O         -3.55592108    0.74238902   -0.62868500
 H         -2.70280290   -1.07576895   -1.19154000
 H         -4.00180292    0.28606501    0.09475600
 H         -0.06858400    2.52779293    1.65953696
 H          1.86380398    2.90495706   -0.99331701
 H          3.05503988   -0.48238301   -0.96319503
 O          1.66933703   -1.88856494    0.15662999
 H          0.61659402   -0.68098003    1.43474102
 C          1.25361598   -3.05055094    0.87686700
 H          1.22256505   -2.84103298    1.95124805
 H          1.99246001   -3.82537508    0.67615497
 H          0.26975700   -3.38643098    0.54038101
