27
wb97x-d4 ma-def2-tzvp(-f) cpcm(dmso) E: -727.018205690509, G: -726.82825727
 C         -1.25116205    0.34632599    0.34592599
 C         -0.65905100    1.56482399   -0.38185999
 O         -0.55224001   -0.84167099   -0.02359100
 C         -2.71210790    0.16259800    0.00971800
 H         -1.15494096    0.51334202    1.42594802
 C          0.78110403   -0.89588499    0.46967000
 C          1.42005301    0.50638098    0.46891099
 C          0.81987101    1.29346001   -0.68925500
 H          1.18462098    1.01586199    1.40589404
 O          2.83390188    0.44461700    0.39561701
 O          1.47498798    2.54029608   -0.87216002
 H          0.88961399    0.69953799   -1.60669696
 O         -0.80992299    2.68674111    0.47839400
 H         -1.19370103    1.74621606   -1.32248902
 H         -3.21335411    1.13099396    0.12239200
 O         -3.27591705   -0.80539799    0.89067501
 H         -2.80203700   -0.15824400   -1.03484595
 H         -4.19165182   -0.94978899    0.62768102
 H         -0.16551200    3.34663892    0.18676600
 H          2.41671991    2.39030409   -0.71264100
 H          3.05545902   -0.28710201   -0.19836000
 O          1.52823102   -1.69382596   -0.39298600
 H          0.77481902   -1.33235800    1.47842395
 C          1.24473500   -3.08943009   -0.28300199
 H          1.96592498   -3.60696197   -0.91415101
 H          0.23153000   -3.30852199   -0.62876803
 H          1.36002600   -3.41894889    0.75478798
