27
wb97x-d4 ma-def2-tzvp(-f) cpcm(dmso) E: -727.01949109736, G: -726.8282084599999
 C         -1.18189204    0.34165701    0.83277202
 C         -0.67499399    1.63223004    0.19554900
 O         -0.10673600   -0.43205699    1.39429700
 C         -2.16616702   -0.44032201   -0.03335400
 H         -1.75650895    0.62811500    1.71722102
 C          1.03635597   -0.66872501    0.60300303
 C          1.61232901    0.62459201    0.02264900
 C          0.53005099    1.40271699   -0.72154599
 H          1.98731101    1.22901297    0.85274398
 O          2.73844910    0.33636200   -0.79211497
 O          1.01829302    2.64820504   -1.20441902
 H          0.20881499    0.82945901   -1.59095502
 O         -0.33699700    2.60480404    1.19355202
 H         -1.48097003    2.08131194   -0.38804901
 H         -2.24948311   -1.45545697    0.37037900
 O         -1.80694902   -0.46373501   -1.41241300
 H         -3.13814211    0.05246700    0.08026600
 H         -2.58343911   -0.74564499   -1.90790296
 H          0.14403300    2.16795897    1.90751898
 H          1.07294500    3.23621511   -0.43814400
 H          2.47470093   -0.37485501   -1.39172995
 O          0.80067801   -1.52996194   -0.47510299
 H          1.75500405   -1.12695503    1.29221296
 C          0.56863803   -2.88140202   -0.09023800
 H          0.51210397   -3.46763396   -1.00691104
 H         -0.37061301   -2.97784400    0.46066499
 H          1.39318395   -3.25051403    0.53004903
