27
wb97x-d4 ma-def2-tzvp(-f) cpcm(dmso) E: -727.017890365328, G: -726.8281625999999
 C         -1.31571996   -0.01068200    0.19018599
 C         -0.70623499    1.39706504    0.28665000
 O         -0.37109599   -0.97682297   -0.27432600
 C         -2.48196793   -0.06665000   -0.78202099
 H         -1.66786897   -0.29210800    1.19079304
 C          0.89108700   -0.79873002    0.35525799
 C          1.58191001    0.46190399   -0.18787500
 C          0.52237803    1.48231697   -0.60261399
 H          2.20491910    0.88263297    0.60860801
 O          2.37222004    0.20233899   -1.34237695
 O          1.00955403    2.81953001   -0.54112601
 H          0.21631300    1.23992705   -1.62660396
 O         -0.37423301    1.66042805    1.65154600
 H         -1.44500303    2.12818289   -0.05516700
 H         -2.18756604    0.36852300   -1.74377501
 O         -3.56165504    0.66132998   -0.20319700
 H         -2.75614595   -1.11473501   -0.94100302
 H         -4.23594189    0.78631902   -0.87957299
 H          0.04393600    2.53019595    1.68222499
 H          1.79786801    2.87984800   -1.09375405
 H          2.99803400   -0.49696401   -1.11657596
 O          1.69015098   -1.90037298    0.09150300
 H          0.72758299   -0.68984801    1.43668699
 C          1.32203996   -3.06311893    0.83593500
 H          2.05193210   -3.83457708    0.59381598
 H          0.32207501   -3.40376091    0.55669099
 H          1.35143197   -2.85217190    1.91009104
