27
wb97x-d4 ma-def2-tzvp(-f) cpcm(dmso) E: -727.017942183108, G: -726.82814603
 C         -1.33772004   -0.05481600    0.19359900
 C         -0.74480700    1.35798895    0.31469300
 O         -0.38034099   -0.99810898   -0.29474899
 C         -2.51126003   -0.12366000   -0.77765000
 H         -1.68045902   -0.35973701    1.19017804
 C          0.88564098   -0.81472301    0.32512799
 C          1.55221295    0.46635300   -0.19937401
 C          0.47409400    1.47889102   -0.58350903
 H          2.17645407    0.88097900    0.59935302
 O          2.33483601    0.24061500   -1.36613595
 O          0.94189101    2.82174611   -0.49841201
 H          0.16102700    1.25291705   -1.60915303
 O         -0.40688401    1.59651899    1.68210101
 H         -1.48655105    2.09726810   -0.00583100
 H         -2.21980906    0.28361601   -1.75156999
 O         -3.65924096    0.54337901   -0.26485300
 H         -2.78179789   -1.17260504   -0.91275197
 H         -3.60332108    1.47853398   -0.48824701
 H          0.00749400    2.46752906    1.72846198
 H          1.71644998    2.90939593   -1.06652296
 H          2.96132898   -0.46546301   -1.16425896
 O          1.69842601   -1.89835000    0.02921500
 H          0.73287702   -0.73152000    1.41025698
 C          1.34895205   -3.08468294    0.74489897
 H          0.35234699   -3.43114591    0.46113899
 H          1.38052404   -2.90076900    1.82395303
 H          2.08763695   -3.84014702    0.48004201
