27
wb97x-d4 ma-def2-tzvp(-f) cpcm(dmso) E: -727.019748613983, G: -726.82811378
 C         -0.97672498    0.45450601    0.62894303
 C         -0.29308200    1.18607605   -0.53257602
 O         -0.09283800   -0.40989000    1.35858905
 C         -2.17668295   -0.35914701    0.16284700
 H         -1.31695104    1.21187496    1.34062600
 C          1.10370004   -0.77291101    0.71326101
 C          1.95121205    0.46308899    0.37866899
 C          1.10016406    1.63918602   -0.13149500
 H          2.42046404    0.79597402    1.30611300
 O          2.99917412    0.11473200   -0.51190501
 O          1.02267301    2.60905409    0.91309601
 H          1.60162497    2.07034898   -1.00466895
 O         -1.03601098    2.35110211   -0.88575202
 H         -0.20671800    0.52046102   -1.39696205
 H         -1.86331701   -1.07961202   -0.59810603
 O         -3.13002491    0.56209099   -0.38268101
 H         -2.60496807   -0.89932603    1.01328504
 H         -3.75783801    0.07151800   -0.92432100
 H         -1.96163499    2.07379508   -0.96594602
 H          0.33538401    3.23815799    0.65566301
 H          2.63208008   -0.51901001   -1.14396203
 O          0.88237298   -1.48529899   -0.47729301
 H          1.63021505   -1.40872395    1.43168902
 C          0.50514799   -2.84577489   -0.26644400
 H          1.28307605   -3.37346697    0.29499599
 H          0.39203900   -3.29914093   -1.25042403
 H         -0.44253701   -2.90966392    0.27475899
