27
wb97x-d4 ma-def2-tzvp(-f) cpcm(dmso) E: -727.019738885398, G: -726.82811323
 C         -0.95902598    0.45551300    0.65758401
 C         -0.30762899    1.18656600   -0.52251798
 O         -0.05559500   -0.40902501    1.36288297
 C         -2.17066693   -0.35871500    0.22366001
 H         -1.27950001    1.21269095    1.37853396
 C          1.12154198   -0.77349597    0.68352699
 C          1.96072197    0.46165401    0.32569101
 C          1.09700501    1.63822198   -0.16104400
 H          2.45615411    0.79391998    1.23961794
 O          2.98345709    0.11240900   -0.59356999
 O          1.05012000    2.60922098    0.88435400
 H          1.57416606    2.06860805   -1.04809797
 O         -1.05894697    2.35222602   -0.85525203
 H         -0.24613100    0.52101898   -1.38906395
 H         -1.87606299   -1.08216906   -0.54179698
 O         -3.13655210    0.56079298   -0.30300599
 H         -2.57961106   -0.89494503    1.08600295
 H         -3.77093291    0.06948800   -0.83622599
 H         -1.98654604    2.07493401   -0.90915400
 H          0.35836801    3.24018693    0.64412898
 H          2.59755707   -0.51838499   -1.21730101
 O          0.86536199   -1.48468196   -0.50067103
 H          1.66735196   -1.41052699    1.38635600
 C          0.49388099   -2.84514594   -0.28000700
 H         -0.43461499   -2.90924907    0.29347199
 H          1.29026699   -3.37525105    0.25250000
 H          0.34586301   -3.29585600   -1.26060200
