27
wb97x-d4 ma-def2-tzvp(-f) cpcm(dmso) E: -727.019735487324, G: -726.82810581
 C         -0.86154002    0.41331699    0.79548800
 C         -0.36185199    1.21250498   -0.41367301
 O          0.11910200   -0.49014801    1.32743895
 C         -2.12665391   -0.37165999    0.47535199
 H         -1.08320498    1.12619996    1.59454596
 C          1.19800103   -0.81290197    0.48442000
 C          1.99254000    0.44152901    0.09533100
 C          1.08075297    1.64282095   -0.20784201
 H          2.60263705    0.72067600    0.95619297
 O          2.88771200    0.14809901   -0.96525198
 O          1.17123699    2.55015111    0.89008498
 H          1.44437301    2.12445211   -1.12186301
 O         -1.13934195    2.39655495   -0.57814997
 H         -0.41860500    0.59924603   -1.31814504
 H         -1.95144403   -1.03104198   -0.37970799
 O         -3.14945793    0.58487499    0.16999900
 H         -2.41061306   -0.97683603    1.34235895
 H         -3.86952710    0.13276900   -0.28283700
 H         -2.06914091    2.12760210   -0.52322501
 H          0.45505500    3.19006300    0.77964300
 H          2.42351007   -0.44725400   -1.56992900
 O          0.78834999   -1.45280099   -0.69741303
 H          1.82395399   -1.48982894    1.07385898
 C          0.43207899   -2.82218099   -0.50719601
 H          0.15068200   -3.21480799   -1.48359597
 H         -0.41360199   -2.91556501    0.17944001
 H          1.28499901   -3.38583398   -0.11532800
