27
wb97x-d4 ma-def2-tzvp(-f) cpcm(dmso) E: -727.020217549662, G: -726.82789831
 C         -1.10407901    0.59621602    0.30114800
 C         -0.29816699    1.29151297   -0.80265403
 O         -0.27115700   -0.16546100    1.20201004
 C         -2.21708298   -0.27368200   -0.25743800
 H         -1.55662298    1.36816800    0.93076903
 C          0.93429399   -0.66450298    0.66332299
 C          1.85955298    0.49619800    0.24781500
 C          1.05797303    1.71222198   -0.25264701
 H          2.40463090    0.81954998    1.13798296
 O          2.82018209    0.06173200   -0.69990700
 O          0.88635999    2.70185804    0.76574600
 H          1.63442504    2.19817901   -1.04081202
 O         -1.02602696    2.40094709   -1.31066203
 H         -0.14155400    0.61500102   -1.64595902
 H         -2.87076211    0.34581900   -0.87458998
 O         -3.02574992   -0.82355601    0.77905399
 H         -1.79615402   -1.06676304   -0.88287503
 H         -2.44165111   -1.31800497    1.36732805
 H         -0.98252702    3.09667397   -0.64016199
 H          0.54452300    2.27620602    1.56226301
 H          2.40478897   -0.64739501   -1.21168900
 O          0.73101199   -1.48052800   -0.45897099
 H          1.38526404   -1.24663603    1.47192395
 C          0.33991301   -2.81626391   -0.13847700
 H          0.25009701   -3.35380602   -1.08139205
 H         -0.62175101   -2.83046794    0.38118601
 H          1.10027003   -3.29321289    0.48768499
