27
wb97x-d4 ma-def2-tzvp(-f) cpcm(dmso) E: -727.024727642059, G: -726.8343383499999
 C         -1.10494995    0.31709200    0.07939100
 C         -0.40969601    1.56937599   -0.45421001
 O         -0.35859901   -0.83007300   -0.31792399
 C         -2.50955796    0.16670100   -0.47579399
 H         -1.15079296    0.36862099    1.17658699
 C          0.94044399   -0.85613799    0.25086001
 C          1.77916801    0.31725001   -0.24763700
 C          1.04872894    1.62879097    0.01416300
 H          2.72453809    0.32300699    0.30774301
 O          2.01573300    0.23148800   -1.64492702
 O          1.10866296    1.87273395    1.41450298
 H          1.56267500    2.42975903   -0.53192502
 O         -1.11102903    2.70912004    0.04484500
 H         -0.43432501    1.54823697   -1.54818594
 H         -3.05034995    1.10651803   -0.33685899
 O         -3.21717596   -0.92096001    0.11491500
 H         -2.44960809   -0.04611400   -1.54589796
 H         -3.41423988   -0.68742102    1.02956796
 H         -0.88505900    3.46912003   -0.50465202
 H          0.43639100    2.54188800    1.60375094
 H          2.32076812   -0.66555601   -1.83136201
 O          1.57025802   -2.02843595   -0.15310800
 H          0.85480201   -0.81509298    1.34688199
 C          1.02686906   -3.20786905    0.44202599
 H         -0.00228800   -3.37333989    0.11528800
 H          1.05686605   -3.12951207    1.53409600
 H          1.65176702   -4.03918886    0.11786600
