27
wb97x-d4 ma-def2-tzvp(-f) cpcm(dmso) E: -727.018844980293, G: -726.82698722
 C         -1.06322598    0.47022000    0.38775700
 C         -0.33958700    1.31996000   -0.66729599
 O         -0.14758700   -0.28903601    1.20141697
 C         -2.13588190   -0.40253001   -0.24809900
 H         -1.55076599    1.15270805    1.09221005
 C          1.04832602   -0.69726503    0.57413900
 C          1.89963305    0.52822000    0.17606100
 C          1.01623499    1.74978304   -0.12696999
 H          2.52516794    0.79251599    1.03236306
 O          2.76426792    0.22334599   -0.90513003
 O          0.84680700    2.58584809    1.02034795
 H          1.52686501    2.36437297   -0.86962098
 O         -1.13997900    2.43537903   -1.03517401
 H         -0.18532801    0.74139100   -1.58170199
 H         -2.77656198    0.24442300   -0.85804898
 O         -2.90716410   -1.12173200    0.70926499
 H         -1.67979205   -1.14581096   -0.90088803
 H         -3.41520405   -0.48616001    1.22706199
 H         -1.12322700    3.05322909   -0.29134500
 H          0.56228399    2.03664207    1.76223600
 H          2.34851789   -0.49652001   -1.40145600
 O          0.81996602   -1.46238506   -0.57876199
 H          1.56751001   -1.30074298    1.32425904
 C          0.45324501   -2.81523108   -0.30283201
 H         -0.48107201   -2.85774708    0.26303899
 H          1.24711394   -3.31420493    0.26168400
 H          0.31943601   -3.30867100   -1.26451600
