27
wb97x-d4 ma-def2-tzvp(-f) cpcm(dmso) E: -727.01783780396, G: -726.82691237
 C         -0.96935898    0.35922599    0.61885202
 C         -0.38003999    0.92348200   -0.67442697
 O         -0.27390701   -0.82422799    1.03264594
 C         -2.42222404   -0.06917100    0.46850500
 H         -0.89774603    1.11922598    1.40759897
 C          1.06873095   -0.97315103    0.61094302
 C          1.75724804    0.37950099    0.55512500
 C          1.10209203    1.29688299   -0.48022601
 H          1.61152995    0.84103900    1.53770804
 O          3.14165211    0.16964200    0.31659299
 O          1.23777199    2.63501596   -0.01286300
 H          1.62501597    1.18447399   -1.43588495
 O         -1.06388903    2.09558511   -1.10394204
 H         -0.44245800    0.14957100   -1.44456506
 H         -2.51275396   -0.75171500   -0.38306099
 O         -3.21403193    1.10676706    0.26146799
 H         -2.73854399   -0.59007603    1.37723303
 H         -4.09007597    0.83798498   -0.03791900
 H         -1.99408197    2.01113701   -0.83361900
 H          0.49469301    3.12623405   -0.39398500
 H          3.60280704    0.99815398    0.49258801
 O          1.16718304   -1.58487594   -0.64699101
 H          1.53818405   -1.61126399    1.36760795
 C          0.73983699   -2.94470406   -0.64160103
 H         -0.33164400   -3.01982403   -0.43738601
 H          1.29346704   -3.51737905    0.11139300
 H          0.95054501   -3.34753203   -1.63179100
