27
wb97x-d4 ma-def2-tzvp(-f) cpcm(dmso) E: -727.018542179006, G: -726.826868
 C         -1.05832398    0.35308799    0.58072400
 C         -0.45118499    1.12038696   -0.60068101
 O         -0.07486000   -0.39872500    1.31226504
 C         -2.20266390   -0.56104797    0.14944500
 H         -1.46143901    1.08390105    1.28972399
 C          1.11252403   -0.71660697    0.62182802
 C          1.86789095    0.56212801    0.21993300
 C          0.90659398    1.68866205   -0.21549600
 H          2.39946389    0.91900498    1.10516596
 O          2.84757400    0.27704799   -0.76422697
 O          0.75556898    2.69502306    0.78827900
 H          1.34517503    2.19633007   -1.07546103
 O         -1.35529399    2.13415909   -1.03195596
 H         -0.32203299    0.45279199   -1.45403695
 H         -1.87332904   -1.20666802   -0.67299598
 O         -3.35440397    0.19101000   -0.22693899
 H         -2.49222803   -1.19171298    0.99238801
 H         -3.05219603    0.92193300   -0.78506398
 H         -1.33870804    2.83509707   -0.36493000
 H          0.55574203    2.27357006    1.63357902
 H          2.48460793   -0.41899499   -1.33001399
 O          0.87904203   -1.47009504   -0.53794003
 H          1.70388603   -1.30099106    1.33287501
 C          0.59718198   -2.84648609   -0.28006300
 H          1.42729294   -3.30764794    0.26456600
 H          0.47866800   -3.33079195   -1.24836600
 H         -0.32454500   -2.95436096    0.29739699
