27
wb97x-d4 ma-def2-tzvp(-f) cpcm(dmso) E: -727.018951324375, G: -726.82643021
 C         -1.23836303    0.16485600    0.36135599
 C         -0.62079501    1.23704898   -0.54586101
 O         -0.44035599   -1.01951897    0.30036500
 C         -2.64259005   -0.22990300   -0.07788500
 H         -1.27373302    0.53314799    1.39538896
 C          0.86948001   -0.78717899    0.81657898
 C          1.60787499    0.14939700   -0.14331400
 C          0.84373999    1.48338103   -0.19290200
 H          2.61820197    0.32714099    0.23287500
 O          1.74062204   -0.37682801   -1.45694005
 O          0.85990602    2.13862801    1.07512605
 H          1.29536605    2.12246394   -0.95732802
 O         -1.36545002    2.45114708   -0.49239001
 H         -0.67992800    0.88522798   -1.57928598
 H         -2.62070298   -0.52388197   -1.13544703
 O         -3.58448505    0.81487697    0.14157100
 H         -2.96863103   -1.08968794    0.51078302
 H         -3.17893291    1.63159204   -0.18624400
 H         -1.08348501    2.91659307    0.30850801
 H          1.67924404    2.63990307    1.15207100
 H          0.89975297   -0.77640700   -1.71362305
 O          1.47784901   -2.00459003    1.10102904
 H          0.78694803   -0.28107899    1.78374898
 C          1.70931399   -2.91477990    0.01865600
 H          2.57256699   -2.61097002   -0.57525003
 H          0.83063799   -2.99919605   -0.62412602
 H          1.90594995   -3.88138199    0.48254099
