27
wb97x-d4 ma-def2-tzvp(-f) cpcm(dmso) E: -727.016935341555, G: -726.82613796
 C         -1.28183901    0.11988300    0.42284900
 C         -0.81879699    1.40301299   -0.29237601
 O         -0.49555501   -0.99228102    0.00023700
 C         -2.72970295   -0.24387100    0.12427600
 H         -1.17046797    0.27426699    1.50317705
 C          0.85372901   -0.94319701    0.45019600
 C          1.37730706    0.50654602    0.44155499
 C          0.66065198    1.25825000   -0.67332798
 H          1.14673901    0.98295099    1.39688504
 O          2.78612900    0.56050402    0.29987699
 O          1.20093405    2.55907989   -0.85916501
 H          0.73651302    0.68748200   -1.60485101
 O         -1.01121402    2.49252391    0.60177100
 H         -1.40799499    1.56615400   -1.20418406
 H         -2.84998989   -0.40231001   -0.95401800
 O         -3.63462591    0.74557298    0.60140097
 H         -2.97964811   -1.17118502    0.64204299
 H         -3.49765301    1.55827904    0.10026300
 H         -0.43105301    3.20364094    0.29513201
 H          2.15932202    2.48328495   -0.75671101
 H          3.03727508   -0.15062700   -0.30736899
 O          1.63185501   -1.67523205   -0.44188899
 H          0.91301399   -1.38459599    1.45487201
 C          1.47195899   -3.09030390   -0.32602099
 H          2.21023107   -3.54415298   -0.98579502
 H          0.46872899   -3.39450502   -0.63423699
 H          1.65415204   -3.40917206    0.70541102
