27
wb97x-d4 ma-def2-tzvp(-f) cpcm(dmso) E: -727.019089590637, G: -726.82595407
 C         -1.15704405    0.48901799    0.60359502
 C         -0.64314997    1.67258096   -0.23980699
 O         -0.08305400   -0.28978601    1.17708397
 C         -2.18354702   -0.37359101   -0.11935300
 H         -1.65851796    0.90071201    1.48296404
 C          1.02024698   -0.63790798    0.37261400
 C          1.57158899    0.55351102   -0.45673299
 C          0.85954100    1.84583104   -0.06102900
 H          2.63650990    0.65345401   -0.22313300
 O          1.39205897    0.39438099   -1.85500002
 O          1.18841195    2.25130391    1.26531601
 H          1.20627201    2.64839506   -0.71456802
 O         -1.34927297    2.86583209    0.07987500
 H         -0.83571601    1.48329198   -1.29482400
 H         -2.45113206   -1.21517897    0.53105700
 O         -1.77861202   -0.83273500   -1.40180004
 H         -3.07835102    0.23496500   -0.27452499
 H         -0.93177599   -1.29516304   -1.29203999
 H         -1.03744102    3.16057897    0.94629198
 H          0.91890001    1.54547906    1.86916995
 H          1.49401200   -0.54447103   -2.05788398
 O          0.73890603   -1.70224094   -0.50509799
 H          1.77334797   -0.96523201    1.09372997
 C          0.61907601   -2.96933508    0.15481199
 H          1.54105604   -3.19680905    0.69711798
 H          0.45440400   -3.71206498   -0.62418503
 H         -0.22671901   -2.96481991    0.84635103
