27
wb97x-d4 ma-def2-tzvp(-f) cpcm(dmso) E: -727.025550963641, G: -726.83420605
 C         -1.05068696    0.21234700    0.13635200
 C         -0.43247300    1.48270905   -0.45489201
 O         -0.26862901   -0.91029102   -0.25642300
 C         -2.45606303   -0.05666700   -0.37768200
 H         -1.07430196    0.29319400    1.23148000
 C          1.04662800   -0.85325003    0.28110600
 C          1.81153297    0.35194299   -0.26024801
 C          1.02290595    1.63323295   -0.01654600
 H          2.76334691    0.41842100    0.27985600
 O          2.03207898    0.24202900   -1.65822995
 O          1.09827995    1.91714394    1.37609303
 H          1.48414695    2.44340110   -0.59394199
 O         -1.10782301    2.65891409   -0.01735600
 H         -0.46335900    1.40268695   -1.54794800
 H         -2.44546199   -0.08898600   -1.47211206
 O         -3.30381703    1.00028503    0.08637300
 H         -2.80104399   -1.02261996    0.00364500
 H         -4.12435389    0.97866398   -0.41869700
 H         -2.05577707    2.45002890    0.00768500
 H          0.39092699    2.55016804    1.56150496
 H          2.38337493   -0.64157701   -1.82678699
 O          1.72753799   -1.99838698   -0.11151900
 H          0.97977602   -0.79131401    1.37716699
 C          1.28508103   -3.18718195    0.54633498
 H          1.37740505   -3.07567096    1.63181901
 H          1.93241203   -3.99397707    0.20496100
 H          0.24835700   -3.41524601    0.28800499
