27
wb97x-d4 ma-def2-tzvp(-f) cpcm(dmso) E: -727.016090873784, G: -726.82394131
 C         -1.12776601    0.35269201    0.49797300
 C         -0.65632302    1.66586196   -0.16693400
 O         -0.05667800   -0.31402299    1.18874002
 C         -1.85701001   -0.59038597   -0.46192700
 H         -1.83048105    0.61658198    1.29043198
 C          1.09271204   -0.64287698    0.42985299
 C          1.52167797    0.49184701   -0.52793998
 C          0.86718899    1.79869902   -0.09130800
 H          2.61022305    0.59100401   -0.46506399
 O          1.12639999    0.25840801   -1.87188995
 O          1.28886604    2.18098307    1.21646297
 H          1.18842804    2.60364103   -0.75433803
 O         -1.28144395    2.81194592    0.40017200
 H         -0.94140601    1.66266704   -1.21936905
 H         -1.25470400   -0.80109900   -1.34720194
 O         -3.11980891   -0.03478400   -0.83218002
 H         -2.05895591   -1.53083205    0.05400300
 H         -2.98628306    0.57055098   -1.56969297
 H         -0.79684103    3.03028703    1.20825398
 H          1.02493799    1.48139000    1.83053303
 H          1.21731102   -0.69014502   -2.03401804
 O          0.93045402   -1.80514300   -0.33014300
 H          1.86776805   -0.80232799    1.18626404
 C          0.82645297   -2.99450707    0.45301601
 H          1.70647097   -3.10551405    1.09528100
 H          0.77535301   -3.82755208   -0.24685000
 H         -0.07654200   -2.97736812    1.06787300
