27
wb97x-d4 ma-def2-tzvp(-f) cpcm(dmso) E: -727.01493139839, G: -726.82337562
 C         -1.07127500    0.36872101    0.52790302
 C         -0.57029700    1.68163800   -0.09791400
 O         -0.01323000   -0.36049601    1.16692996
 C         -1.85538805   -0.50518698   -0.45310599
 H         -1.74318898    0.63095200    1.34902298
 C          1.10853302   -0.69585502    0.36867601
 C          1.54868603    0.45620000   -0.56203002
 C          0.96110898    1.76808095   -0.04403100
 H          2.64154911    0.51326001   -0.52785200
 O          1.10869300    0.28502399   -1.90160000
 O          1.46574295    2.05860591    1.25359905
 H          1.29464602    2.58645892   -0.68655097
 O         -1.19446802    2.76121998    0.59464997
 H         -0.86283302    1.70844603   -1.15010297
 H         -1.28168905   -0.68597502   -1.36069202
 O         -3.05302000    0.15611000   -0.85701299
 H         -2.07507896   -1.46730602    0.02054900
 H         -3.63938498    0.21181799   -0.09290600
 H         -0.93094498    3.58494902    0.16623899
 H          1.06608105    1.43366802    1.87280703
 H          1.19138598   -0.65496200   -2.11028695
 O          0.89206398   -1.82934105   -0.42159501
 H          1.89610302   -0.90102500    1.10019004
 C          0.79635602   -3.04043889    0.32815301
 H          0.70181799   -3.85080194   -0.39352000
 H         -0.08086800   -3.02635193    0.97962803
 H          1.69890201   -3.18741202    0.93085200
