27
wb97x-d4 ma-def2-tzvp(-f) cpcm(dmso) E: -727.026026813633, G: -726.83415795
 C         -1.28957701    0.25886801    0.63657498
 C         -0.72748399    1.58687997    0.14784500
 O         -0.32200000   -0.51473999    1.36075795
 C         -1.96547401   -0.54532897   -0.48123601
 H         -2.05827594    0.48388901    1.38097000
 C          0.93004102   -0.71363300    0.74498999
 C          1.55986094    0.60849500    0.31056601
 C          0.59788197    1.38395298   -0.57619703
 H          1.77242196    1.19443798    1.20601702
 O          2.80555201    0.39583999   -0.33956999
 O          1.11511600    2.67429399   -0.88991201
 H          0.42209899    0.82019198   -1.49905002
 O         -0.55578399    2.43855810    1.27867997
 H         -1.45087898    2.02950406   -0.54619002
 H         -1.34878194   -0.59523398   -1.37770295
 O         -3.19225788    0.06789300   -0.87222898
 H         -2.13308406   -1.56496406   -0.12209900
 H         -3.81918406   -0.01891900   -0.14426200
 H         -0.03014400    3.19339204    0.98253697
 H          2.03813505    2.56053400   -1.15037096
 H          2.66439605   -0.29222000   -1.00468194
 O          0.86050099   -1.53260100   -0.39357099
 H          1.54733706   -1.19466102    1.51098502
 C          0.67720503   -2.91464806   -0.08901500
 H         -0.28522599   -3.08443308    0.40092900
 H          1.48403502   -3.27104497    0.56020999
 H          0.70356798   -3.45430398   -1.03497303
