27
wb97x-d4 ma-def2-tzvp(-f) cpcm(dmso) E: -727.024841972847, G: -726.83394398
 C         -1.08737099    0.16479000    0.41397801
 C         -0.57479399    1.47016096   -0.18937500
 O         -0.37467799   -0.92237699   -0.17513900
 C         -2.57384205   -0.05887100    0.19299400
 H         -0.91376197    0.17390500    1.49914503
 C          1.00829303   -0.88153100    0.14362700
 C          1.67220700    0.35878700   -0.44715500
 C          0.93613601    1.61256802    0.01103900
 H          2.70474601    0.40094200   -0.08063000
 O          1.64146996    0.33770499   -1.86670005
 O          1.24518204    1.80372202    1.38669205
 H          1.29499900    2.46493006   -0.57954699
 O         -1.25592101    2.54444790    0.45943400
 H         -0.78569001    1.47017705   -1.26217103
 H         -2.82371593   -1.06381500    0.53971201
 O         -2.96638393    0.01136900   -1.17597902
 H         -3.13235092    0.66328001    0.79414701
 H         -3.07952595    0.93813097   -1.41370797
 H         -1.16983902    3.33382797   -0.08852700
 H          0.59504300    2.43140411    1.73049796
 H          1.93512499   -0.53768802   -2.14913797
 O          1.62339997   -1.99602699   -0.41545600
 H          1.12287295   -0.87912798    1.23781002
 C          1.29311597   -3.22246003    0.23910099
 H          0.23049200   -3.45156193    0.12999500
 H          1.54868805   -3.16439509    1.30248499
 H          1.88610196   -4.00229692   -0.23713300
