33
wb97x-d4 ma-def2-tzvp(-f) cpcm(dmso) E: -955.171809069601, G: -954.95245325
 C         -2.41222596    0.39223099   -0.05929400
 C         -1.83209503   -0.92730302    0.49998701
 O         -1.79167402   -0.92600298    1.94354105
 C         -0.46664599   -1.12029600   -0.04494800
 O         -0.04377800   -2.39597607   -0.18448000
 C          0.53018701   -0.00959800    0.08677600
 C         -0.23842999    1.28969598    0.34406900
 C          0.56498402    2.51750994   -0.02793300
 O         -0.10923100    3.72218204    0.32805499
 O         -1.42124295    1.31590402   -0.45815799
 O          1.44074595   -0.19199300    1.17362702
 O         -3.26455808    0.93174601    0.91631401
 H         -0.50667602    1.33696103    1.40442097
 H         -2.98177695    0.18156500   -0.97045201
 H          1.10749197    0.08698000   -0.84478003
 C         -4.06234694    2.01414490    0.44217801
 H         -2.57690811   -0.44604301    2.24130988
 H          1.51266205    2.50782490    0.51192099
 H          0.77421802    2.49656796   -1.10490096
 H          2.19674492   -0.74022698    0.84528798
 H          0.90515202   -2.43077993   -0.52963102
 H         -0.97085398    3.70278001   -0.10668700
 H         -3.43913507    2.87250996    0.17962700
 H         -4.73718309    2.28825593    1.25232196
 H         -4.64516497    1.70531404   -0.43259999
 H         -2.48263311   -1.74400997    0.16991000
 O          3.53600001   -1.59808898    0.29107201
 O          2.30641890   -2.71107507   -1.21144104
 C          4.68415689   -2.86294794   -1.36541998
 C          3.41034698   -2.35701704   -0.70559800
 H          4.47967291   -3.69310999   -2.04104805
 H          5.40691519   -3.16547108   -0.60577798
 H          5.12686205   -2.04223609   -1.93727005
