33
wb97x-d4 ma-def2-tzvp(-f) cpcm(dmso) E: -955.171322892907, G: -954.94942121
 C         -2.35747194    0.53246999    0.24745201
 C         -2.31947494   -0.69176400   -0.68856400
 O         -3.05420589   -1.77418900   -0.14472900
 C         -0.89432597   -1.04466498   -1.01256001
 O         -0.33301601   -1.86935401   -0.09178300
 C         -0.11792500    0.12811799   -1.55466998
 C         -0.22313100    1.29293799   -0.54986602
 C          0.40542901    2.58052397   -1.04937601
 O         -0.17145801    3.03485608   -2.27120805
 O         -1.60671902    1.59251595   -0.31244501
 O          1.22148299   -0.15974499   -1.88649201
 O         -1.88197398    0.15194000    1.50544095
 H          0.26411000    1.00910699    0.39061701
 H         -3.37911892    0.92269897    0.33008799
 H         -0.61648202    0.45620099   -2.47232199
 C         -2.06229401    1.15787601    2.49805903
 H         -2.49088907   -2.17701602    0.52892703
 H          0.30808601    3.34731293   -0.27167299
 H          1.46531796    2.41284990   -1.24230504
 H          1.75035405   -0.33233699   -1.06611896
 H          0.63356799   -2.09534097   -0.25549200
 H         -1.11929095    3.13423491   -2.12014890
 H         -1.44238102    2.03449392    2.28842306
 H         -1.76318097    0.72090900    3.45067000
 H         -3.11369395    1.46361399    2.54934907
 H         -2.82711697   -0.38155201   -1.60601699
 O          2.85659790   -0.65908402    0.17716800
 O          2.11076403   -2.73976707   -0.11698700
 C          4.21878386   -2.44646406    0.97596502
 C          2.97346401   -1.90966499    0.28887001
 H          4.14038277   -2.23816109    2.04689002
 H          5.10594416   -1.93164694    0.60273099
 H          4.31986523   -3.52190900    0.83210498
