33
wb97x-d4 ma-def2-tzvp(-f) cpcm(dmso) E: -955.171102074562, G: -954.9494144
 C         -2.47440290    0.48220599    0.17090900
 C         -2.34859800   -0.74901301   -0.74873799
 O         -3.04257989   -1.86278701   -0.21604300
 C         -0.89842200   -1.03363097   -1.02934802
 O         -0.32587701   -1.83173394   -0.09187300
 C         -0.17205700    0.17529900   -1.55771196
 C         -0.36952901    1.35448503   -0.58098000
 C          0.17782301    2.66436505   -1.13605595
 O          1.59886301    2.66766310   -1.20556402
 O         -1.77066898    1.57600296   -0.38806900
 O          1.19462800   -0.03441600   -1.86308897
 O         -2.00870609    0.14158601    1.44417596
 H          0.11571100    1.12811601    0.37514800
 H         -3.51727104    0.81633598    0.22587000
 H         -0.66427302    0.46684700   -2.49294806
 C         -2.26269388    1.14763105    2.42102289
 H         -2.46751809   -2.24992990    0.45729601
 H         -0.26332700    2.84407806   -2.12551689
 H         -0.11802300    3.48291898   -0.47643599
 H          1.70214498   -0.29008001   -1.04510999
 H          0.63223100   -2.07499504   -0.27262899
 H          1.84575701    1.84302604   -1.65308905
 H         -3.33001304    1.39497995    2.45003390
 H         -1.68847799    2.05471301    2.21222997
 H         -1.95775199    0.73935401    3.38415790
 H         -2.84215689   -0.47378701   -1.68476999
 O          2.72712588   -0.53851402    0.24657400
 O          2.14143109   -2.65492010   -0.14063300
 C          4.14914417   -2.26343608    1.09238303
 C          2.92141104   -1.78198802    0.33754501
 H          4.46060514   -3.24760294    0.74212497
 H          3.88804603   -2.34355211    2.15197206
 H          4.96743202   -1.54922497    0.99716097
