33
wb97x-d4 ma-def2-tzvp(-f) cpcm(dmso) E: -955.169885087524, G: -954.9490097
 C         -2.44895291    0.38753399    0.14012800
 C         -1.83688605   -0.96286303   -0.28118700
 O         -2.36022806   -2.03446698    0.48223099
 C         -0.33828101   -0.88398898   -0.22370499
 O          0.17273401   -1.18637896    0.99846399
 C          0.22827201    0.28121501   -0.99749398
 C         -0.46995601    1.56742597   -0.51725602
 C         -0.06574100    2.76823997   -1.35122705
 O         -0.59859401    3.99627495   -0.85588402
 O         -1.88818300    1.42323804   -0.64232498
 O          1.61742496    0.44818801   -0.83324200
 O         -2.24042392    0.57505500    1.50997901
 H         -0.20305100    1.73968506    0.53250200
 H         -3.52220392    0.41264501   -0.08503400
 H         -0.03799500    0.14655800   -2.05766892
 C         -2.92576909    1.71241701    2.02607203
 H         -1.81149900   -2.09365296    1.27605295
 H          1.02533901    2.81146407   -1.40132797
 H         -0.45660299    2.64859700   -2.36489391
 H          2.06768203   -0.42386800   -0.98841900
 H          1.15245700   -1.41646302    0.95292503
 H         -0.17796500    4.18134785   -0.00832200
 H         -2.79950809    1.69551301    3.10858989
 H         -3.99307704    1.66191399    1.78136003
 H         -2.50765491    2.64042306    1.62529600
 H         -2.14425492   -1.11391604   -1.32029605
 O          2.95008707   -1.82160103   -1.18962705
 O          2.59542608   -2.12121010    0.99527299
 C          4.26941109   -3.45527911   -0.05685800
 C          3.19656897   -2.37856698   -0.08621500
 H          5.03742599   -3.25825810   -0.80552697
 H          3.79727507   -4.41301107   -0.29663801
 H          4.71672821   -3.53420997    0.93427497
