33
wb97x-d4 ma-def2-tzvp(-f) cpcm(dmso) E: -955.170991322909, G: -954.9489781999999
 C         -2.47419405    0.43953100    0.21818900
 C         -2.34845901   -0.81085098   -0.67532998
 O         -3.00759602   -1.92357802   -0.09755600
 C         -0.90098399   -1.07539105   -0.98854297
 O         -0.28825501   -1.84285295   -0.05119700
 C         -0.21123700    0.13507099   -1.56158602
 C         -0.40366301    1.33006895   -0.60393399
 C          0.10819500    2.63812208   -1.19535601
 O          1.52734303    2.66392398   -1.29838002
 O         -1.80403495    1.53195000   -0.38376099
 O          1.14945400   -0.05700300   -1.90388501
 O         -1.97195995    0.13804901    1.48722100
 H          0.10574900    1.13125706    0.34558100
 H         -3.52122688    0.75678802    0.29073799
 H         -0.73482502    0.39912900   -2.48789310
 C         -2.22662401    1.15934205    2.44792700
 H         -2.40760493   -2.28462410    0.56848800
 H         -0.35811001    2.79336095   -2.17735410
 H         -0.18533801    3.46331406   -0.54304999
 H          1.68844402   -0.28225601   -1.09773195
 H          0.67098802   -2.06688809   -0.25260201
 H          1.77756202    1.83749294   -1.74034595
 H         -1.88898396    0.77974999    3.41189694
 H         -3.29863501    1.38182902    2.49766994
 H         -1.67947304    2.07476592    2.20551705
 H         -2.87209392   -0.56810701   -1.60398698
 O          2.19322395   -2.60819292   -0.15227300
 O          2.72929096   -0.47266200    0.19850300
 C          4.19973612   -2.15365005    1.05691004
 C          2.95566010   -1.70917499    0.30640101
 H          3.92772698   -2.31240606    2.10486388
 H          4.97557592   -1.38901901    1.01607895
 H          4.57435179   -3.09709311    0.65878099
