33
wb97x-d4 ma-def2-tzvp(-f) cpcm(dmso) E: -955.168173359218, G: -954.94888753
 C         -2.50083303    0.57378799    0.06770400
 C         -2.00809407   -0.85030597   -0.16453800
 O         -2.85939908   -1.76142395    0.52412099
 C         -0.56762302   -1.00195801    0.21785200
 O         -0.14065801   -2.28649998    0.09295600
 C          0.38605499    0.10830600   -0.12279100
 C         -0.29471701    1.46598899    0.04252500
 C          0.48209500    2.57392693   -0.64133197
 O         -0.08216100    3.85553098   -0.37889701
 O         -1.59660900    1.47202599   -0.54849797
 O          1.54384005    0.13146000    0.71172798
 O         -2.64098501    0.80914998    1.43604195
 H         -0.37604499    1.68510997    1.11152804
 H         -3.45696712    0.73706001   -0.44277200
 H          0.70450199   -0.00478900   -1.17428899
 C         -3.25724196    2.06347895    1.71821499
 H         -2.48032308   -2.64065695    0.40355200
 H          1.50351799    2.58921909   -0.25998700
 H          0.51230299    2.37827897   -1.72061098
 H          1.97133505   -0.74494702    0.64418203
 H          0.86593902   -2.35180998    0.11710900
 H         -1.00428700    3.82321000   -0.66162997
 H         -2.61240506    2.89650798    1.42293596
 H         -3.42610002    2.09854889    2.79425907
 H         -4.21607304    2.14625311    1.19365096
 H         -2.10441303   -1.02810800   -1.24935198
 O          2.61667395   -2.34160209   -1.96196699
 O          2.45514798   -2.42567801    0.26616001
 C          4.59542990   -2.81293392   -0.69122702
 C          3.11273503   -2.50505996   -0.83372098
 H          5.07569218   -2.00327492   -0.13527399
 H          5.07375813   -2.91827703   -1.66466606
 H          4.72591209   -3.73052001   -0.11296500
