33
wb97x-d4 ma-def2-tzvp(-f) cpcm(dmso) E: -955.170184553686, G: -954.9488831699999
 C         -2.50143909    0.51752400   -0.06561600
 C         -1.99577796   -0.89881301   -0.34460899
 O         -2.84657788   -1.86675203    0.26429299
 C         -0.55797797   -1.04839599    0.05031900
 O         -0.06940300   -2.29727507   -0.16073400
 C          0.38800299    0.10813800   -0.11986200
 C         -0.32035899    1.44323695    0.09105600
 C          0.47511101    2.60155797   -0.47822899
 O         -0.11530100    3.85797000   -0.15713100
 O         -1.58919895    1.47126198   -0.56778097
 O          1.47098005    0.08192800    0.81216502
 O         -2.70425701    0.63736397    1.31413996
 H         -0.46180499    1.59450901    1.16539800
 H         -3.43879795    0.70462602   -0.60098499
 H          0.79961199    0.07879000   -1.14370406
 C         -3.36543393    1.84599805    1.68170702
 H         -2.85384393   -1.67331803    1.21105194
 H          1.47668302    2.59921288   -0.04716500
 H          0.55945498    2.48062801   -1.56546497
 H          1.98148501   -0.73502201    0.64485699
 H          0.93200099   -2.31945109   -0.07312400
 H         -1.01972699    3.84156108   -0.49343401
 H         -2.72952890    2.71544290    1.49103200
 H         -3.57855701    1.77908504    2.74822593
 H         -4.30292320    1.95378196    1.12496901
 H         -2.09981203   -1.07234895   -1.42456102
 O          2.84550905   -2.05396891   -2.02192807
 O          2.52928090   -2.37435603    0.16818200
 C          4.69711685   -2.81424093   -0.70098299
 C          3.25258589   -2.37517595   -0.89154798
 H          4.71400213   -3.84543705   -0.33873299
 H          5.17102098   -2.19112611    0.06125500
 H          5.25787497   -2.74693203   -1.63305795
