33
wb97x-d4 ma-def2-tzvp(-f) cpcm(dmso) E: -955.171759236352, G: -954.95155547
 C         -2.41551709    0.39231399   -0.07799300
 C         -1.79436398   -0.91865498    0.45850900
 O         -1.73937798   -0.93575799    1.90211403
 C         -0.42996100   -1.07097101   -0.10175300
 O          0.02132300   -2.33468294   -0.26052201
 C          0.53879303    0.06515400    0.02379400
 C         -0.26142800    1.34097004    0.30195501
 C          0.50315100    2.59469509   -0.06453000
 O         -0.20209999    3.77605391    0.30996701
 O         -1.45329201    1.34160602   -0.48752600
 O          1.46891105   -0.09439200    1.09770405
 O         -3.26106095    0.90478498    0.91797698
 H         -0.52056199    1.37030399    1.36525095
 H         -2.99758506    0.17745000   -0.98002398
 H          1.09943795    0.18330500   -0.91552103
 C         -4.09745979    1.96770298    0.46683601
 H         -2.53238797   -0.47805801    2.21413589
 H          1.45522296    2.60699105    0.46735501
 H          0.70397198    2.59117794   -1.14319205
 H          2.21115708   -0.66842502    0.78126502
 H          0.96136200   -2.34860206   -0.62725002
 H         -1.06575501    3.73817992   -0.11952800
 H         -4.67653990    1.65414405   -0.40874201
 H         -3.50466394    2.85030699    0.21421900
 H         -4.77556610    2.20651793    1.28544605
 H         -2.42694402   -1.74767101    0.12430800
 O          3.55720305   -1.57236803    0.31602201
 O          2.38340902   -2.59924889   -1.28760898
 C          4.72175503   -3.02264595   -1.18376803
 C          3.46167493   -2.33666205   -0.67954499
 H          4.72584295   -4.05120087   -0.81090701
 H          5.61849594   -2.51828408   -0.82444000
 H          4.72285414   -3.06403399   -2.27401090
