33
wb97x-d4 ma-def2-tzvp(-f) cpcm(dmso) E: -955.169269953322, G: -954.94875179
 C         -2.50567007    0.47199801   -0.06838900
 C         -1.89004695   -0.87677002    0.36719400
 O         -1.77388000   -1.00997603    1.80154204
 C         -0.56191200   -1.00390506   -0.28948200
 O         -0.12574400   -2.26091003   -0.52305502
 C          0.42491800    0.06639100    0.07039200
 C         -0.33445001    1.37722802    0.33337900
 C          0.47447899    2.61229396   -0.01769400
 O          0.77128702    2.68614697   -1.40950894
 O         -1.52877402    1.43022799   -0.44169599
 O          1.11342502   -0.24554500    1.29524195
 O         -3.34054089    0.95248502    0.94360799
 H         -0.57838202    1.42265201    1.40110695
 H         -3.08781195    0.30934599   -0.98304600
 H          1.16024196    0.20336400   -0.72966701
 C         -4.15728903    2.04106808    0.52080798
 H         -0.84960300   -0.83961898    2.03320408
 H         -0.07394300    3.50478697    0.30427700
 H          1.42859399    2.57891989    0.51183099
 H          1.86120200   -0.85819501    1.07415795
 H          0.85518599   -2.27003288   -0.77631998
 H         -0.07040400    2.66911507   -1.88137901
 H         -4.73876095    1.76609504   -0.36700201
 H         -3.55347705    2.92445493    0.29714099
 H         -4.83623123    2.26566505    1.34331000
 H         -2.56727195   -1.66925395    0.04156900
 O          3.19207001   -1.80242395    0.69483602
 O          2.33470297   -2.48152494   -1.25663996
 C          4.66103983   -2.83129406   -0.87623399
 C          3.29003406   -2.34094405   -0.43865800
 H          5.17331982   -2.00605512   -1.38030505
 H          4.57363605   -3.65921307   -1.58017099
 H          5.26005983   -3.12657499   -0.01435000
