33
wb97x-d4 ma-def2-tzvp(-f) cpcm(dmso) E: -955.168531936197, G: -954.9483853199999
 C         -2.54879308    0.33840701   -0.02429400
 C         -1.85835195   -0.78766602    0.76816601
 O         -1.81954706   -0.44167900    2.17519498
 C         -0.50496298   -1.00969505    0.20299400
 O          0.00769300   -2.25357008    0.33750400
 C          0.40305200    0.16612400    0.01951200
 C         -0.43657401    1.44059300    0.16096801
 C          0.27875701    2.66804194   -0.38143301
 O          1.44362605    2.96339798    0.38627100
 O         -1.63981795    1.27804506   -0.58095902
 O          1.45864797    0.23675500    0.98970801
 O         -3.49995899    0.96653003    0.78611302
 H         -0.65936100    1.59792900    1.22150397
 H         -3.04528594   -0.10812400   -0.89314300
 H          0.85352898    0.14557400   -0.98385799
 C         -4.38551521    1.80540001    0.04797900
 H         -1.27022600   -1.10853505    2.60413194
 H          0.53863299    2.50094199   -1.43492603
 H         -0.38653901    3.53290200   -0.32462201
 H          2.22001600   -0.31601200    0.66022402
 H          0.91707999   -2.32444501   -0.09905300
 H          1.80318606    2.10862803    0.68140101
 H         -5.13385487    2.17055011    0.75088000
 H         -4.87948608    1.23740804   -0.74907100
 H         -3.85351896    2.65400600   -0.38993099
 H         -2.46259999   -1.69253397    0.64855200
 O          3.53643990   -1.13396394    0.11433300
 O          2.25131106   -2.68535399   -0.86119199
 C          4.60111094   -2.81405997   -1.20622504
 C          3.36975002   -2.15120792   -0.60936499
 H          4.87549496   -3.66195798   -0.57145602
 H          5.44243193   -2.12227702   -1.24298298
 H          4.38362789   -3.20015097   -2.20292711
