33
wb97x-d4 ma-def2-tzvp(-f) cpcm(dmso) E: -955.169911804623, G: -954.94814372
 C         -1.43862605    0.22437701    0.44523001
 C         -1.64111996   -0.93912899   -0.54548901
 O         -1.88183701   -2.16280103    0.11357300
 C         -0.52732700   -0.93169701   -1.55931306
 O          0.69138402   -1.46476305   -1.27681196
 C         -0.41369301    0.38852200   -2.27215695
 C         -0.23312400    1.48867297   -1.20710599
 C         -0.25583300    2.88206005   -1.79860103
 O         -0.02961800    3.88312101   -0.80813599
 O         -1.32025397    1.44144297   -0.27321300
 O          0.66112798    0.40765801   -3.20141912
 O         -0.32160899   -0.04310700    1.23524499
 H          0.71412200    1.32290399   -0.68089497
 H         -2.32994604    0.35418299    1.07057798
 H         -1.33468497    0.59696800   -2.82553506
 C         -0.18603601    0.84152198    2.34262609
 H         -1.03873503   -2.52729893    0.46384901
 H          0.54186398    2.97750902   -2.53537202
 H         -1.21893406    3.04669905   -2.29825497
 H          1.36785603   -0.12729400   -2.81415510
 H          0.68497902   -2.09624290   -0.48726401
 H         -0.68327600    3.74481606   -0.11153200
 H          0.65466899    0.48039299    2.93478608
 H         -1.09528100    0.83240801    2.95453906
 H          0.01590700    1.86399806    2.00928807
 H         -2.55851293   -0.68857801   -1.08767200
 O          0.74726999   -3.02248001    2.97270703
 O          0.58032799   -3.05246997    0.74928802
 C          2.44041300   -1.90355599    1.70060599
 C          1.16365898   -2.71655703    1.84313905
 H          2.90448904   -1.72602296    2.67043400
 H          2.19903207   -0.94754702    1.23062503
 H          3.14135098   -2.42770696    1.04641294
