33
wb97x-d4 ma-def2-tzvp(-f) cpcm(dmso) E: -955.168879816723, G: -954.94807187
 C         -2.50671411    0.41396999    0.07129200
 C         -1.80955303   -0.85670799    0.60854000
 O         -1.52228200   -0.79152501    2.02476192
 C         -0.56673199   -1.06171501   -0.18086600
 O         -0.12837900   -2.33398294   -0.29643801
 C          0.42641699    0.05894300   -0.10632500
 C         -0.33523601    1.38220298    0.07521400
 C          0.43507901    2.54068398   -0.52635998
 O         -0.12123300    3.81287193   -0.20572101
 O         -1.60851300    1.31403005   -0.55496401
 O          1.28497303   -0.07211000    1.03867900
 O         -3.22181511    1.03067005    1.10328805
 H         -0.46254700    1.55701804    1.15073800
 H         -3.19484997    0.11832200   -0.72917902
 H          1.04180205    0.09328700   -1.01468897
 C         -4.12293720    2.02721500    0.62649500
 H         -0.58155900   -0.58607602    2.11985612
 H          1.47750497    2.47477007   -0.19608200
 H          0.41190901    2.45708394   -1.61585498
 H          2.01095605   -0.70513099    0.80161500
 H          0.80977798   -2.36948204   -0.67842901
 H         -0.00778700    3.95714998    0.74103302
 H         -4.81389380    1.60095799   -0.11037200
 H         -3.58349609    2.86299109    0.17286600
 H         -4.68692684    2.38409305    1.48812497
 H         -2.49974895   -1.69288099    0.47789401
 O          3.30476308   -1.69350803    0.39871201
 O          2.21741509   -2.63493299   -1.31546199
 C          4.54377317   -3.08110404   -1.10124302
 C          3.26152301   -2.40840697   -0.63611400
 H          5.42256117   -2.57788491   -0.69835103
 H          4.58747196   -3.10636592   -2.19090390
 H          4.53828001   -4.11444187   -0.74175501
