33
wb97x-d4 ma-def2-tzvp(-f) cpcm(dmso) E: -955.169298851245, G: -954.94791197
 C         -2.58840609    0.34380299   -0.09768900
 C         -1.93119299   -1.03831601   -0.11631000
 O         -2.70095706   -1.97020102    0.63648200
 C         -0.49982601   -0.96076798    0.32306501
 O          0.12415200   -2.17025495    0.34226599
 C          0.31133300    0.23088799   -0.09949000
 C         -0.52481198    1.50878596   -0.07499600
 C          0.15982300    2.65742612   -0.80556899
 O          1.34790504    3.07865310   -0.14328700
 O         -1.76944101    1.29921806   -0.73962802
 O          1.44591999    0.46228001    0.73934400
 O         -2.85267806    0.67282099    1.23692095
 H         -0.69885802    1.79611194    0.96701503
 H         -3.52015305    0.33216301   -0.67376101
 H          0.66501898    0.06495900   -1.13082397
 C         -3.67251205    1.83118498    1.37573695
 H         -2.78950906   -1.60320604    1.52612603
 H          0.37698001    2.34814692   -1.83636498
 H         -0.51977003    3.51229000   -0.83847803
 H          2.03060293   -0.33173901    0.67535901
 H          1.10985804   -2.06004500    0.38897499
 H          1.78574800    2.27358794    0.17843699
 H         -3.89798307    1.93516397    2.43666792
 H         -4.60413980    1.70929694    0.81204802
 H         -3.14979291    2.72504306    1.02356696
 H         -1.97389603   -1.40334201   -1.15174496
 O          3.02203298   -1.30598199   -1.71069801
 O          2.78712296   -1.84734905    0.44635201
 C          4.57181406   -2.86267805   -0.75088203
 C          3.37305999   -1.92807198   -0.69332898
 H          4.23857498   -3.88423800   -0.54933000
 H          5.28630018   -2.59068298    0.02958400
 H          5.05768681   -2.82494497   -1.72556603
