33
wb97x-d4 ma-def2-tzvp(-f) cpcm(dmso) E: -955.169482755384, G: -954.94787471
 C         -2.56849909    0.85070801   -0.13371600
 C         -2.65335989   -0.34709999   -1.09893000
 O         -3.96457410   -0.87883502   -1.14138401
 C         -1.60043299   -1.35722005   -0.75194401
 O         -1.97531199   -2.30143690    0.16674200
 C         -0.21814699   -0.79606998   -0.58830798
 C         -0.27969700    0.39328200    0.39078301
 C          1.04830503    1.11730099    0.55229598
 O          1.65781105    1.49341404   -0.67367500
 O         -1.24731398    1.34405899   -0.07850700
 O          0.63651103   -1.81110704   -0.09806000
 O         -3.04351902    0.42432001    1.11234999
 H         -0.58135998    0.01908000    1.37613797
 H         -3.17192793    1.68778002   -0.50405198
 H          0.12674300   -0.41661301   -1.55711806
 C         -3.21965790    1.48949206    2.04298210
 H         -4.19288206   -1.14090204   -0.24014300
 H          0.87167001    2.02799892    1.13137805
 H          1.71993804    0.47372901    1.13093400
 H          1.55185997   -1.60526597   -0.42794001
 H         -1.16095901   -2.74721503    0.44983900
 H          2.13421512    0.69834697   -0.99613100
 H         -2.25688601    1.92143905    2.33079696
 H         -3.70538497    1.06601906    2.92169690
 H         -3.85487199    2.27266693    1.61403894
 H         -2.43506908    0.05058900   -2.09379005
 O          4.23860979   -2.16858411    0.12528400
 O          2.89145398   -0.89293498   -1.11774802
 C          5.11515284   -0.12498200   -0.77294499
 C          4.01179695   -1.15215194   -0.55787301
 H          4.77329302    0.85442102   -0.42885101
 H          5.32707405   -0.04103200   -1.84188104
 H          6.02542305   -0.40319601   -0.24225999
