33
wb97x-d4 ma-def2-tzvp(-f) cpcm(dmso) E: -955.168297554586, G: -954.9478738
 C         -2.58922911    0.33837700   -0.10686900
 C         -1.91515195   -0.92508501    0.49921900
 O         -1.97783196   -0.98862499    1.94081903
 C         -0.53255999   -1.05403805   -0.02423000
 O         -0.02897600   -2.30495596   -0.07973200
 C          0.37688100    0.13038400   -0.05723400
 C         -0.47632599    1.39111102    0.11497100
 C          0.24625599    2.64782190   -0.34607899
 O          1.40505004    2.89769912    0.44502300
 O         -1.65857196    1.25771797   -0.65924197
 O          1.35956204    0.14801200    0.99158698
 O         -3.39061999    0.94534200    0.86304498
 H         -0.72596401    1.51008999    1.17753100
 H         -3.20414495    0.03774900   -0.96212399
 H          0.89943397    0.17740101   -1.02409399
 C         -4.25360489    1.94260800    0.32082301
 H         -1.43440998   -0.28108600    2.30641103
 H          0.51397800    2.53832507   -1.40510499
 H         -0.42095599    3.50743794   -0.24657600
 H          2.12498093   -0.42964101    0.72327101
 H          0.92191899   -2.31557393   -0.42199501
 H          1.74622405    2.03097796    0.72512400
 H         -4.86746883    1.52192903   -0.48407799
 H         -3.68345189    2.79135203   -0.06548500
 H         -4.89920187    2.27749109    1.13240504
 H         -2.50186801   -1.78853595    0.18000001
 O          3.47764993   -1.29503405    0.34692001
 O          2.33606410   -2.60280490   -1.06302905
 C          4.70235777   -2.84448504   -0.99504697
 C          3.40950990   -2.18794894   -0.53835797
 H          4.65255117   -3.09228110   -2.05606294
 H          4.82655191   -3.77746797   -0.43706501
 H          5.56136179   -2.20426011   -0.79474503
