33
wb97x-d4 ma-def2-tzvp(-f) cpcm(dmso) E: -955.169688149773, G: -954.9477828199999
 C         -1.15396094    0.11511600    0.48893201
 C         -1.33532906   -1.05464399   -0.49800900
 O         -1.25485396   -2.30798411    0.14488100
 C         -0.43403700   -0.84643501   -1.68826699
 O          0.89033902   -1.15213299   -1.63759005
 C         -0.67741799    0.48178101   -2.35539293
 C         -0.49078399    1.58264303   -1.29173803
 C         -0.83851397    2.96216607   -1.81275499
 O         -0.60779101    3.97256994   -0.83306199
 O         -1.37324405    1.34211695   -0.18778300
 O          0.18752700    0.69778800   -3.46198201
 O          0.11716800    0.03916400    1.05676198
 H          0.54878598    1.56932700   -0.94470102
 H         -1.92514098    0.07896800    1.26757503
 H         -1.70650601    0.53139800   -2.72352290
 C          0.28850901    0.90183401    2.17568803
 H         -0.31227201   -2.55195093    0.28973299
 H         -0.20576499    3.19684696   -2.66850710
 H         -1.88719106    2.97172904   -2.13620305
 H          1.03808796    0.30041000   -3.22911096
 H          1.13044500   -1.78802705   -0.89428103
 H         -1.10576606    3.72125912   -0.04517600
 H         -0.46566999    0.69056702    2.94247699
 H          0.21826600    1.95271206    1.87923706
 H          1.28130603    0.70484602    2.57960892
 H         -2.36067390   -0.95341700   -0.86778700
 O          3.11537004   -1.60840797    1.12021995
 O          1.38764596   -2.77227497    0.31855699
 C          1.56737900   -2.56545091    2.68134403
 C          2.08027291   -2.27669692    1.27982497
 H          0.54254502   -2.19794798    2.76781702
 H          2.19271898   -2.09197998    3.43776894
 H          1.54855299   -3.64588904    2.84544396
