33
wb97x-d4 ma-def2-tzvp(-f) cpcm(dmso) E: -955.169510476779, G: -954.94771899
 C         -2.56229401    0.86601198   -0.11737600
 C         -2.63876009   -0.28626201   -1.13743997
 O         -3.95198202   -0.80812901   -1.22341800
 C         -1.59585094   -1.31625199   -0.82006598
 O         -1.98776996   -2.29392099    0.05551400
 C         -0.21361400   -0.76935703   -0.61423498
 C         -0.28458199    0.37143999    0.42057499
 C          1.04447305    1.07779396    0.63975698
 O          1.67405295    1.51569700   -0.55522603
 O         -1.23948097    1.34862006   -0.01911400
 O          0.63363498   -1.80883503   -0.16417100
 O         -3.05845594    0.38537699    1.10038102
 H         -0.60497600   -0.04808800    1.38142395
 H         -3.15552902    1.72291505   -0.45761901
 H          0.14283900   -0.34412500   -1.55951703
 C         -3.23653698    1.40657306    2.07859492
 H         -4.19562721   -1.10918605   -0.33852899
 H          0.86456198    1.95752800    1.26389205
 H          1.70372903    0.39998999    1.19298601
 H          1.55189800   -1.59025395   -0.47829601
 H         -1.18016005   -2.75685000    0.33018401
 H          2.14539409    0.73568600   -0.91890103
 H         -2.27352309    1.81414402    2.39901805
 H         -3.73797607    0.94670999    2.92976904
 H         -3.85813498    2.21586895    1.67934501
 H         -2.40364790    0.15448500   -2.10998392
 O          4.23225498   -2.15508103    0.08955400
 O          2.89232206   -0.85152102   -1.13286602
 C          5.12393904   -0.10857400   -0.78698599
 C          4.01218510   -1.12842500   -0.58016098
 H          6.03684092   -0.40624800   -0.27164999
 H          4.79570580    0.86694998   -0.41924599
 H          5.32506800   -0.00468100   -1.85619295
