33
wb97x-d4 ma-def2-tzvp(-f) cpcm(dmso) E: -955.169248056062, G: -954.94770395
 C         -2.63212299    0.61922199   -0.32924899
 C         -2.41716099   -0.82249498   -0.81533098
 O         -3.60612798   -1.58565199   -0.72029102
 C         -1.25358498   -1.42214096   -0.08690400
 O         -1.56416500   -2.08838511    1.06663299
 C          0.00510900   -0.59086698   -0.02337000
 C         -0.33560401    0.86745203    0.34517699
 C          0.79320300    1.85670495    0.05766200
 O          1.90742898    1.71133995    0.91495401
 O         -1.42894602    1.34512806   -0.45206600
 O          0.85670102   -1.14962900    0.95741999
 O         -3.10517406    0.56406897    0.98626697
 H         -0.60117900    0.90370202    1.40761697
 H         -3.35005999    1.14426398   -0.97053498
 H          0.48847201   -0.58379698   -1.00934303
 C         -3.52709389    1.83127797    1.48476505
 H         -3.84846902   -1.61721694    0.21417500
 H          1.09247601    1.75052094   -0.99300200
 H          0.38889301    2.86548400    0.18893699
 H          1.71630895   -1.41480303    0.51682001
 H         -0.71382803   -2.17891192    1.53548396
 H          2.54331994    1.09650695    0.48205200
 H         -2.68081188    2.51834202    1.57440305
 H         -3.95936298    1.65706801    2.46974206
 H         -4.28287315    2.27091408    0.82427502
 H         -2.16802096   -0.74789298   -1.87739897
 O          3.67217398    0.23874100   -0.50210899
 O          3.03537393   -1.89202595   -0.25333700
 C          5.05207300   -1.45661700   -1.44991505
 C          3.81963110   -0.99808800   -0.68234098
 H          5.30713415   -0.73969400   -2.23151898
 H          4.90370512   -2.44783807   -1.87881601
 H          5.89258003   -1.50468194   -0.75085300
