33
wb97x-d4 ma-def2-tzvp(-f) cpcm(dmso) E: -955.168656591655, G: -954.94754856
 C         -1.97196805    0.31841800    0.44086701
 C         -2.27692699   -0.80258399   -0.57703203
 O         -2.91678500   -1.89836502    0.05099900
 C         -1.00829399   -1.18562698   -1.29277503
 O         -0.29023400   -2.13958097   -0.64271897
 C         -0.32283401    0.00169100   -1.92106605
 C         -0.05659400    1.04127598   -0.81553698
 C          0.51603198    2.33866000   -1.34783006
 O          0.75412101    3.27365994   -0.29779601
 O         -1.30726004    1.38879704   -0.20283800
 O          0.83412099   -0.29233000   -2.67965198
 O         -1.21969903   -0.22629599    1.48482394
 H          0.61930901    0.62594497   -0.06028000
 H         -2.90079093    0.75500298    0.82762802
 H         -1.04021895    0.45922101   -2.61154294
 C         -1.01480305    0.67944902    2.56465697
 H         -2.23614597   -2.35807109    0.56020999
 H          1.47500396    2.14575410   -1.82812703
 H         -0.17249300    2.76052594   -2.09124398
 H          1.47090399   -0.78755200   -2.12212896
 H          0.70540899   -2.03204489   -0.74685103
 H         -0.07641700    3.37270188    0.18401800
 H         -0.38047701    1.51710296    2.26019096
 H         -0.51947701    0.11889700    3.35747194
 H         -1.97319496    1.06505096    2.93094611
 H         -2.98573494   -0.37910399   -1.29329300
 O          4.01581097   -0.64984399   -0.09557200
 O          2.25489712   -1.74497294   -0.91234899
 C          2.38477993   -1.48012495    1.45322502
 C          2.94684005   -1.26334596    0.05552900
 H          2.22779489   -2.54828095    1.62226403
 H          1.40966296   -0.99252599    1.53222001
 H          3.05565906   -1.08150303    2.21358109
