33
wb97x-d4 ma-def2-tzvp(-f) cpcm(dmso) E: -955.169064056528, G: -954.94739254
 C         -2.31896210    0.43367001    0.30139300
 C         -2.49350500   -0.67244399   -0.76298499
 O         -3.22919989   -1.76717997   -0.25077200
 C         -1.13535404   -1.07434201   -1.27376294
 O         -0.55074197   -2.10398197   -0.60987097
 C         -0.33309501    0.09420800   -1.76947796
 C         -0.22957900    1.14939296   -0.64690500
 C          0.40916300    2.44865990   -1.12052000
 O          1.78780699    2.28290009   -1.43290496
 O         -1.55366099    1.50209498   -0.22769301
 O          0.92471701   -0.23339701   -2.33301902
 O         -1.72998798   -0.13038599    1.43573403
 H          0.34119099    0.74326301    0.19535799
 H         -3.28644300    0.88225198    0.55753702
 H         -0.91708398    0.56692302   -2.56880093
 C         -1.69357300    0.75867999    2.54853106
 H         -2.58901811   -2.31965208    0.21970400
 H         -0.14705200    2.82484508   -1.98942602
 H          0.34255800    3.19253707   -0.32355201
 H          1.51961994   -0.68943602   -1.68011498
 H          0.30056000   -1.86678195   -0.10038300
 H          1.84032702    1.49351299   -1.99511003
 H         -1.30580699    0.19241799    3.39496994
 H         -2.70043707    1.12333703    2.78228092
 H         -1.03880203    1.61205006    2.35078907
 H         -3.07858610   -0.22586900   -1.57173705
 O          1.45128703   -1.64192700    0.91184199
 O          2.83623099   -1.20397794   -0.78053802
 C          3.77685404   -1.46300495    1.40006602
 C          2.60397196   -1.42471099    0.43607101
 H          4.12777901   -2.49692798    1.47097099
 H          3.46963811   -1.14040005    2.39525795
 H          4.59918404   -0.84632701    1.03706896
