33
wb97x-d4 ma-def2-tzvp(-f) cpcm(dmso) E: -955.171847329815, G: -954.95067198
 C         -2.52843308    0.55975598   -0.06364200
 C         -2.01533604   -0.86543500   -0.24551401
 O         -2.92577505   -1.77886605    0.36278799
 C         -0.61698300   -1.00724399    0.26722199
 O         -0.17635800   -2.29223490    0.22266901
 C          0.36952299    0.09583000    0.02524000
 C         -0.32572299    1.45541894    0.11286700
 C          0.50495201    2.56161189   -0.50439399
 O         -0.08814600    3.84331393   -0.30711800
 O         -1.57153702    1.45659304   -0.59573603
 O          1.42623901    0.07429400    0.97394198
 O         -2.79423094    0.79877102    1.28671598
 H         -0.50513899    1.68264306    1.16833997
 H         -3.43384504    0.72244602   -0.65890503
 H          0.79440200   -0.01712100   -0.98830497
 C         -3.42670393    2.05668902    1.51275098
 H         -2.53411794   -2.65756392    0.28479299
 H          1.48537004    2.58560991   -0.02853200
 H          0.63786697    2.35865688   -1.57440305
 H          2.22059393   -0.33877000    0.53972101
 H          0.82127798   -2.36813998    0.22304399
 H         -0.98067898    3.80221009   -0.67249799
 H         -4.32615709    2.15119410    0.89403403
 H         -2.74958897    2.88673806    1.29186499
 H         -3.70436001    2.08588409    2.56590104
 H         -2.01243305   -1.04475999   -1.33487999
 O          3.52633405   -1.01100004   -0.19874801
 O          2.35076904   -2.91021895   -0.06984700
 C          4.58040524   -3.02335501   -0.91608697
 C          3.39647388   -2.25834298   -0.34202099
 H          4.52388191   -4.08261681   -0.66568398
 H          5.52021790   -2.59972906   -0.56037802
 H          4.55723286   -2.92226291   -2.00520110
