33
wb97x-d4 ma-def2-tzvp(-f) cpcm(dmso) E: -955.169057431609, G: -954.94736712
 C         -2.30882406    0.43357101    0.29792899
 C         -2.49812293   -0.65862602   -0.77818298
 O         -3.25268602   -1.74625194   -0.27858999
 C         -1.14513397   -1.07612705   -1.29032600
 O         -0.57636398   -2.12071609   -0.63581002
 C         -0.32583499    0.08564900   -1.77398300
 C         -0.20632800    1.12642300   -0.63941002
 C          0.45429301    2.42049599   -1.09694397
 O          1.83086705    2.23617911   -1.40848505
 O         -1.52527297    1.49547899   -0.21758500
 O          0.92575902   -0.25467300   -2.34344792
 O         -1.73249602   -0.15229200    1.42766201
 H          0.35648900    0.70185101    0.19903700
 H         -3.26981997    0.89465302    0.55630201
 H         -0.90376598    0.57618302   -2.56692791
 C         -1.68631101    0.72233999    2.55132794
 H         -2.62385106   -2.31166506    0.19166400
 H         -0.09360900    2.81585097   -1.96259701
 H          0.39813700    3.15605092   -0.29150099
 H          1.51593196   -0.72343898   -1.69504499
 H          0.27779400   -1.90133202   -0.12446300
 H          1.87137604    1.45474696   -1.98262501
 H         -1.31900299    0.13751499    3.39426398
 H         -2.68684793    1.10655606    2.78087807
 H         -1.01101303    1.56327999    2.36992002
 H         -3.07406712   -0.19506700   -1.58391201
 O          2.82253194   -1.25194895   -0.79523402
 O          1.42993796   -1.67998898    0.89339799
 C          3.73625302   -1.37984002    1.40871203
 C          2.58284307   -1.45232403    0.42369601
 H          3.75466394   -0.37302199    1.83674097
 H          4.68826389   -1.55949903    0.90947300
 H          3.59420991   -2.09001088    2.22406507
