33
wb97x-d4 ma-def2-tzvp(-f) cpcm(dmso) E: -955.168567256985, G: -954.94735866
 C         -2.51842093    0.67028999    0.00978600
 C         -1.99130297   -0.58442497   -0.67632699
 O         -2.94896293   -1.63734305   -0.49948999
 C         -0.64077997   -0.90759403   -0.14480101
 O         -0.03470400   -1.97111499   -0.71482599
 C          0.12335100    0.13593701    0.59975898
 C         -0.22232500    1.52244198    0.05099800
 C          0.46725699    1.77221000   -1.29274797
 O          1.87467003    1.86786103   -1.16474605
 O         -1.63356996    1.74803996   -0.16192900
 O         -0.04753300    0.06101700    2.02991295
 O         -2.75033593    0.38260299    1.37197804
 H          0.11293000    2.27631497    0.76946998
 H         -3.45823503    0.99339998   -0.44921899
 H          1.19117904   -0.01255200    0.44182700
 C         -3.44359589    1.43238103    2.04777193
 H         -2.57429600   -2.42776108   -0.90637797
 H          0.18792200    0.98291200   -2.00203991
 H          0.10037800    2.72259498   -1.68782306
 H         -1.00650597    0.07728500    2.17601109
 H          0.93791801   -2.05268312   -0.42168200
 H          2.25313902    0.96454799   -1.17438996
 H         -2.83196712    2.33670998    2.09977102
 H         -3.65370798    1.07415605    3.05499196
 H         -4.38446617    1.65742505    1.53427994
 H         -1.93217695   -0.35068601   -1.75176299
 O          3.06478906   -0.57511598   -1.30483496
 O          2.41540694   -2.30589890   -0.04457600
 C          4.74842405   -1.98042703   -0.34583899
 C          3.30087805   -1.57728100   -0.58534497
 H          4.91532183   -2.14691305    0.72028297
 H          5.43772602   -1.22280097   -0.71730697
 H          4.94159603   -2.92553210   -0.86077601
