33
wb97x-d4 ma-def2-tzvp(-f) cpcm(dmso) E: -955.168208337495, G: -954.94735726
 C         -1.45903504    0.24026200    0.47226501
 C         -0.99229503   -0.96087402   -0.37316701
 O         -0.74209702   -2.10050988    0.42134100
 C          0.10937500   -0.52319598   -1.30491900
 O          1.39222705   -0.38929799   -0.87862003
 C         -0.31066701    0.63618302   -2.16938710
 C         -0.76874799    1.77582705   -1.23987103
 C         -1.33997595    2.95636201   -1.99615300
 O         -1.70155096    4.02012300   -1.11799395
 O         -1.82186198    1.30675900   -0.38795599
 O          0.73396099    1.07521999   -3.02615905
 O         -0.45066801    0.59539503    1.36943400
 H          0.08205100    2.10343099   -0.63114297
 H         -2.38001204   -0.00881700    1.01324105
 H         -1.15794206    0.34663600   -2.79898691
 C         -0.86591297    1.57663703    2.31600189
 H          0.17194900   -2.07972908    0.77445400
 H         -0.58769202    3.34914994   -2.68016791
 H         -2.20909691    2.62617707   -2.57936597
 H          1.56009495    0.94436902   -2.54055309
 H          1.62538195   -0.98052901   -0.08893300
 H         -2.30281997    3.65056300   -0.45952401
 H         -1.76458395    1.24276805    2.84724498
 H         -1.07084298    2.53353190    1.82717001
 H         -0.04778700    1.69936705    3.02547312
 H         -1.85266495   -1.20187294   -1.00613296
 O          3.56855893   -2.92239308    0.14258000
 O          1.85902095   -1.89348102    1.14932096
 C          2.54580998   -3.98866796    2.03225493
 C          2.68924403   -2.86427903    1.01815403
 H          2.68346500   -3.58695006    3.03927588
 H          3.27167511   -4.78098583    1.85191405
 H          1.53344095   -4.39717722    1.97890902
