33
wb97x-d4 ma-def2-tzvp(-f) cpcm(dmso) E: -955.167262695687, G: -954.94727242
 C         -2.56578708    0.46105599    0.08845800
 C         -2.26699400   -0.87206101   -0.63316202
 O         -2.96762609   -1.94305098   -0.02779200
 C         -0.77849400   -1.09425700   -0.69745499
 O         -0.28370199   -1.69472003    0.41520101
 C         -0.08211200    0.08312500   -1.32682204
 C         -0.41349900    1.34312296   -0.50210100
 C          0.16194899    2.61290193   -1.11657596
 O          1.58037400    2.66028810   -1.01203501
 O         -1.83423996    1.51962495   -0.50060099
 O          1.31401598   -0.05505900   -1.55503201
 O         -2.27616000    0.30553699    1.44660699
 H         -0.04177200    1.22918701    0.52296400
 H         -3.61773896    0.74078000   -0.04462200
 H         -0.54044998    0.23812200   -2.31016207
 C         -2.70821095    1.40590096    2.24176502
 H         -2.53882289   -2.10868502    0.82208198
 H         -0.15573899    2.68087411   -2.16574502
 H         -0.23406900    3.47967696   -0.58260900
 H          1.74831796   -0.49678200   -0.78983599
 H          0.71356499   -1.58720303    0.52554500
 H          1.89481997    1.79663897   -1.32402694
 H         -2.52968407    1.13473904    3.28210211
 H         -3.77739310    1.59339404    2.08985806
 H         -2.14454103    2.31134391    1.99961996
 H         -2.65808296   -0.76242602   -1.64769197
 O          2.71595693   -3.44626999    1.02892196
 O          2.25992107   -1.30312300    0.60123599
 C          4.48407984   -2.04260492    0.21588500
 C          3.05282092   -2.31230998    0.65331298
 H          4.89899921   -1.22209203    0.80579698
 H          4.48353004   -1.72592497   -0.83067602
 H          5.10677004   -2.92974401    0.32758901
