33
wb97x-d4 ma-def2-tzvp(-f) cpcm(dmso) E: -955.167944748384, G: -954.94717672
 C         -1.47288299    0.24027300    0.57043898
 C         -0.15846400   -0.52565098    0.40727001
 O          0.19896600   -1.07574296    1.66760194
 C          0.89770001    0.36123300   -0.19010299
 O          2.14233708   -0.14586300   -0.38957199
 C          0.50470501    1.33352804   -1.25888801
 C         -0.86131197    1.94165003   -0.97256601
 C         -1.44301295    2.65669298   -2.17543888
 O         -2.67537308    3.29615211   -1.85723805
 O         -1.79180205    0.90951902   -0.63578802
 O          1.44387305    2.40761900   -1.37360406
 O         -1.37091303    1.11842799    1.65143001
 H         -0.77206498    2.64594412   -0.14001600
 H         -2.29941392   -0.46107501    0.73299098
 H          0.46018600    0.80211902   -2.22626710
 C         -2.61492991    1.73159099    1.97962606
 H          0.97797799   -1.64869201    1.52550006
 H         -0.75370699    3.43482494   -2.50601101
 H         -1.57956600    1.93736506   -2.99266505
 H          2.32155609    2.00886893   -1.41676497
 H          2.29090810   -1.00572205    0.11851300
 H         -3.26370096    2.61754394   -1.50387502
 H         -2.94557095    2.40784788    1.18575704
 H         -2.45661807    2.29848909    2.89675808
 H         -3.38497996    0.96974701    2.14739299
 H         -0.37397000   -1.34785700   -0.29649800
 O          2.02403808   -3.50924993   -0.87061000
 O          2.51999211   -2.33886790    0.96907300
 C          2.90465999   -4.68471098    1.02260602
 C          2.43996906   -3.43054295    0.29824200
 H          2.69666910   -5.57910013    0.43578100
 H          2.41366100   -4.75442410    1.99582005
 H          3.98108196   -4.61193514    1.20110095
