33
wb97x-d4 ma-def2-tzvp(-f) cpcm(dmso) E: -955.168701300139, G: -954.94716899
 C         -2.16459298    0.54537398    0.26143000
 C         -2.49328208   -0.53840297   -0.78985500
 O         -3.42966700   -1.47070801   -0.28024000
 C         -1.21585000   -1.17322004   -1.26905203
 O         -0.80123502   -2.21056890   -0.49156800
 C         -0.22735500   -0.15533100   -1.77753997
 C          0.04373900    0.85111803   -0.64206702
 C          0.93984300    1.99571502   -1.06373405
 O          1.18985403    2.88938594    0.01956700
 O         -1.20416999    1.44813597   -0.25472799
 O          0.96028000   -0.68759602   -2.33199692
 O         -1.73010099   -0.08666600    1.42971003
 H          0.48704600    0.34014201    0.21958099
 H         -3.04732394    1.16213906    0.46763399
 H         -0.72287899    0.40566400   -2.57746792
 C         -1.59020805    0.80476302    2.53249097
 H         -2.95732498   -2.01086903    0.36694500
 H          1.90501499    1.60355401   -1.38314402
 H          0.47922599    2.52756000   -1.90582502
 H          1.41833901   -1.22612405   -1.64901304
 H          0.19756000   -2.27399111   -0.41375700
 H          0.33063200    3.16460609    0.36286101
 H         -0.77906001    1.51842999    2.36193490
 H         -1.35928297    0.19461200    3.40523291
 H         -2.52380705    1.35225594    2.70473194
 H         -2.97403789   -0.01954400   -1.62279403
 O          1.82448304   -1.83323097    1.88884199
 O          1.80045795   -2.23415399   -0.30876401
 C          3.60058689   -0.93918300    0.54876399
 C          2.31590390   -1.72766697    0.75246501
 H          4.30717516   -1.52195895   -0.04580800
 H          4.05237484   -0.66288298    1.50089300
 H          3.36766005   -0.03135400   -0.01572800
