33
wb97x-d4 ma-def2-tzvp(-f) cpcm(dmso) E: -955.167248480498, G: -954.947101
 C         -2.55935693    0.49882901    0.06473900
 C         -2.25603604   -0.82860303   -0.66559303
 O         -2.97817802   -1.90034401   -0.08790200
 C         -0.76862901   -1.06273901   -0.70158100
 O         -0.30140701   -1.67283905    0.41821599
 C         -0.05080400    0.11514400   -1.30495501
 C         -0.38661101    1.36740506   -0.46993899
 C          0.21330599    2.63940501   -1.05583894
 O          1.62970996    2.67014194   -0.92309600
 O         -1.80523300    1.55767202   -0.49394301
 O          1.34839201   -0.03275900   -1.50694895
 O         -2.30239105    0.32368901    1.42703700
 H         -0.03585200    1.23571002    0.56038100
 H         -3.60549212    0.78925800   -0.08903800
 H         -0.48960701    0.28599399   -2.29454589
 C         -2.74717689    1.41578603    2.22667909
 H         -2.57748604   -2.07145691    0.77437901
 H         -0.08362200    2.72438192   -2.10985088
 H         -0.18446800    3.50285912   -0.51777399
 H          1.75955200   -0.50877303   -0.74948102
 H          0.69704401   -1.59536195    0.53398901
 H          1.94060194    1.80474603   -1.23413301
 H         -2.58896708    1.13226902    3.26700401
 H         -3.81289196    1.60738897    2.05659103
 H         -2.17712688    2.32266998    2.00586295
 H         -2.62395811   -0.70425802   -1.68704700
 O          2.25529003   -1.35004902    0.62428701
 O          2.64688110   -3.52149391    0.96469802
 C          4.44746399   -2.14711189    0.17299800
 C          3.01529694   -2.38594007    0.62530601
 H          4.44036818   -1.77449000   -0.85480797
 H          5.03778076   -3.06139588    0.22635700
 H          4.90361214   -1.37573397    0.79795003
