33
wb97x-d4 ma-def2-tzvp(-f) cpcm(dmso) E: -955.169376233156, G: -954.94706171
 C         -2.35515094    0.51330400    0.24494199
 C         -2.59963608   -0.61414099   -0.78363597
 O         -3.42838597   -1.62527204   -0.23974700
 C         -1.27850199   -1.11975396   -1.29135501
 O         -0.72938901   -2.10315490   -0.52852899
 C         -0.40481001   -0.01716000   -1.81697500
 C         -0.18977199    1.00027394   -0.67637902
 C          0.66974300    2.20242906   -1.07868302
 O          1.93280995    2.22824001   -0.42126000
 O         -1.48273695    1.49370897   -0.28556499
 O          0.79181099   -0.47509500   -2.40969300
 O         -1.85833299   -0.06300700    1.41841900
 H          0.27900901    0.50684702    0.18147600
 H         -3.28723192    1.05228603    0.45241800
 H         -0.97397798    0.51391399   -2.59052896
 C         -1.80971396    0.84813100    2.51297808
 H         -2.91600490   -2.06120300    0.45333901
 H          0.80472702    2.21727705   -2.16666508
 H          0.14593600    3.11528993   -0.78857601
 H          1.52968097   -0.50244099   -1.74707699
 H          0.26254001   -2.05232000   -0.45635700
 H          2.33907294    1.34555697   -0.50588298
 H         -2.79153705    1.30814099    2.67318892
 H         -1.06767201    1.63283396    2.33950996
 H         -1.52975202    0.27048901    3.39363694
 H         -3.15122104   -0.15670900   -1.60901105
 O          2.77162910   -0.41435000   -0.65427101
 O          1.79945803   -2.22092104    0.22189000
 C          3.76681209   -1.37821198    1.28319800
 C          2.70073199   -1.34706903    0.20386100
 H          4.73667097   -1.09444594    0.87231702
 H          3.82529497   -2.36062193    1.75120294
 H          3.49789596   -0.64284402    2.04781604
