33
wb97x-d4 ma-def2-tzvp(-f) cpcm(dmso) E: -955.171496671394, G: -954.95043135
 C         -2.39386201    0.45040399    0.16429400
 C         -1.81498301   -0.91080600   -0.26973501
 O         -2.36365604   -1.97378194    0.48723599
 C         -0.31308001   -0.87178397   -0.21854800
 O          0.19372700   -1.18370497    1.00275695
 C          0.27516401    0.28285301   -0.99366301
 C         -0.38039601    1.57759905   -0.48848301
 C          0.01955700    2.78743505   -1.31020796
 O         -0.57476902    3.98376489   -0.81224698
 O         -1.80475104    1.47894502   -0.60860300
 O          1.67021000    0.41694200   -0.85209900
 O         -2.18097401    0.62126303    1.53514802
 H         -0.10415600    1.73283005    0.56003898
 H         -3.46589804    0.50403100   -0.06075900
 H         -0.01292700    0.16321300   -2.04960608
 C         -2.83843899    1.77124703    2.06000996
 H         -1.82532597   -2.04312706    1.28731501
 H          1.09989798    2.92088890   -1.26123500
 H         -0.26735899    2.62013793   -2.35638499
 H          2.09691501   -0.46764001   -1.00013006
 H          1.17126799   -1.41832399    0.95862597
 H         -1.52620196    3.82723093   -0.76691800
 H         -2.39604402    2.69169593    1.66802096
 H         -2.71493292    1.74289000    3.14251804
 H         -3.90615511    1.74984896    1.81305003
 H         -2.12718797   -1.04670501   -1.30933404
 O          2.61514997   -2.13354492    1.00818098
 O          2.95147109   -1.89006305   -1.18693101
 C          4.24927521   -3.52566791   -0.02580800
 C          3.19880700   -2.42731810   -0.07384600
 H          4.76836681   -3.52082610    0.93313599
 H          4.96166801   -3.42169404   -0.84446502
 H          3.73962402   -4.48823404   -0.13132501
