33
wb97x-d4 ma-def2-tzvp(-f) cpcm(dmso) E: -955.166615393573, G: -954.94688606
 C         -2.41548705    0.38556200   -0.13153100
 C         -1.92850804   -0.99242097    0.36977300
 O         -1.98830903   -1.09073806    1.80900896
 C         -0.53835601   -1.21517003   -0.08818400
 O         -0.16386101   -2.49169207   -0.33092001
 C          0.47764501   -0.13687900    0.10338300
 C         -0.24977000    1.14404798    0.52246201
 C          0.62752801    2.38067198    0.39034200
 O          1.69867897    2.35922194    1.32953894
 O         -1.37372804    1.32251298   -0.33369300
 O          1.46069801   -0.42239100    1.11945605
 O         -3.36376691    0.85927600    0.78739899
 H         -0.57117301    1.04595196    1.56447005
 H         -2.88269091    0.26762301   -1.11465502
 H          1.00971401    0.05123400   -0.84083700
 C         -4.09825611    1.98827100    0.31715599
 H         -2.80050898   -0.64386898    2.08572793
 H          1.00813794    2.44768095   -0.63703698
 H          0.02900400    3.27103090    0.59453702
 H          2.04013395   -1.11759806    0.74042499
 H          0.83832097   -2.54921389   -0.42468399
 H          2.02151704    1.44375396    1.36400104
 H         -4.85266876    2.21113610    1.07071197
 H         -4.58806276    1.75629795   -0.63491398
 H         -3.44378304    2.85349393    0.18774500
 H         -2.58715391   -1.75209904   -0.06408600
 O          2.62159896   -2.71977806   -2.55402803
 O          2.43285203   -2.47069192   -0.34287000
 C          4.38920403   -1.60229802   -1.37869203
 C          3.05112791   -2.32278299   -1.45646501
 H          5.04056597   -2.11493707   -0.66690302
 H          4.22685623   -0.58844501   -1.00278497
 H          4.87250710   -1.55676305   -2.35385394
