33
wb97x-d4 ma-def2-tzvp(-f) cpcm(dmso) E: -955.166625435199, G: -954.946751
 C         -2.41293502    0.45262501   -0.16845199
 C         -1.96320403   -0.95154703    0.29298499
 O         -2.04923606   -1.09521794    1.72690499
 C         -0.57085598   -1.18948603   -0.15050000
 O         -0.22854200   -2.45396399   -0.48263800
 C          0.46537799   -0.14308900    0.09179200
 C         -0.24174300    1.13938999    0.53912801
 C          0.66229600    2.36123610    0.45555201
 O          1.72909403    2.28773189    1.39632201
 O         -1.34747303    1.36993301   -0.32765099
 O          1.42262995   -0.48296201    1.11631799
 O         -3.36082196    0.91973603    0.75382602
 H         -0.58244902    1.01539898    1.57222903
 H         -2.87069798    0.37610200   -1.16025996
 H          1.01922297    0.06237000   -0.83628100
 C         -4.07406187    2.06932092    0.30170700
 H         -2.84773493   -0.62560397    2.00604105
 H          1.04792404    2.45503306   -0.56803399
 H          0.07943200    3.25538492    0.68754601
 H          1.98746097   -1.18270504    0.72579002
 H          0.77542001   -2.53974390   -0.54067898
 H          2.02944994    1.36444700    1.40813994
 H         -4.56968880    1.85984898   -0.65266299
 H         -3.40240502    2.92303109    0.18291301
 H         -4.82276487    2.29679203    1.05973101
 H         -2.63059902   -1.68264306   -0.17541499
 O          2.63398099   -2.56521201   -2.60596395
 O          2.36199689   -2.52184606   -0.38963899
 C          4.42920113   -1.72779202   -1.25180602
 C          3.04257798   -2.31987691   -1.45749104
 H          4.98045015   -1.67128503   -2.18978405
 H          4.98402500   -2.33119297   -0.52984703
 H          4.32466984   -0.72421598   -0.82982302
