33
wb97x-d4 ma-def2-tzvp(-f) cpcm(dmso) E: -955.168878219979, G: -954.94661823
 C         -2.28745103    0.37071699    0.30133101
 C         -2.46480703   -0.80886197   -0.67869598
 O         -3.13251400   -1.88947403   -0.05297100
 C         -1.12850595   -1.17704594   -1.26368904
 O         -0.42175999   -2.06154799   -0.50078601
 C         -0.41776600    0.00318300   -1.87363005
 C         -0.25286099    1.06236398   -0.76352102
 C          0.40336499    2.36539793   -1.20613205
 O          1.81190097    2.27205706   -1.34328198
 O         -1.56660998    1.42179096   -0.30862501
 O          0.78539598   -0.31714699   -2.53996801
 O         -1.65514803   -0.11261400    1.45193195
 H          0.31959099    0.64108503    0.06941900
 H         -3.26029205    0.80646300    0.55845100
 H         -1.08740497    0.44266799   -2.62111807
 C         -1.61756206    0.83978403    2.51124692
 H         -2.55737209   -2.19731688    0.65956998
 H         -0.01144000    2.67886806   -2.17043591
 H          0.14095201    3.13023710   -0.46342200
 H          1.42682397   -0.67803001   -1.88476396
 H          0.55004603   -1.91689706   -0.57239699
 H          2.15666699    1.56863403   -0.75095201
 H         -1.19290102    0.33363900    3.37789202
 H         -2.62858200    1.18967199    2.74930906
 H         -0.99217999    1.69696498    2.24622893
 H         -3.11625004   -0.44723800   -1.47810197
 O          2.90893698    0.40388799    0.33763301
 O          2.22661901   -1.50574505   -0.60530698
 C          3.44765806   -1.65576005    1.42835999
 C          2.81536889   -0.84376699    0.31029001
 H          4.22104216   -2.30260992    1.00651598
 H          2.69063807   -2.30154705    1.87980497
 H          3.88640404   -1.01180804    2.18982005
