33
wb97x-d4 ma-def2-tzvp(-f) cpcm(dmso) E: -955.16774026414, G: -954.94647944
 C         -2.30873895    0.42662099    0.28279299
 C         -2.55733991   -0.73101002   -0.71041697
 O         -3.27635503   -1.78261495   -0.09234300
 C         -1.24491096   -1.16773295   -1.30336404
 O         -0.57510298   -2.07953811   -0.53685701
 C         -0.47097999   -0.03008000   -1.91600502
 C         -0.25565800    1.01343405   -0.80132502
 C          0.53130901    2.23818707   -1.24633300
 O          1.38730299    2.72218204   -0.21529999
 O         -1.54059005    1.44511199   -0.32402200
 O          0.73933798   -0.41735500   -2.53549099
 O         -1.69235802   -0.10296800    1.42229104
 H          0.29055500    0.53678602    0.01702500
 H         -3.25579190    0.90852797    0.55471998
 H         -1.09688699    0.43126601   -2.68769097
 C         -1.57991505    0.83944100    2.48489308
 H         -2.70749688   -2.13418698    0.60491198
 H          1.11561704    1.98577404   -2.13622093
 H         -0.16131400    3.04260993   -1.50405800
 H          1.34139395   -0.78449601   -1.84628701
 H          0.39512399   -1.91477299   -0.53408200
 H          1.95737600    1.96523201    0.02066200
 H         -0.89441299    1.64936101    2.21997690
 H         -1.18929303    0.30007499    3.34763098
 H         -2.56138396    1.26156104    2.72990894
 H         -3.19230604   -0.32599801   -1.50212097
 O          2.85368490    0.39656600    0.38304099
 O          2.09369493   -1.52217901   -0.49113199
 C          3.62064791   -1.66696405    1.31822705
 C          2.79591393   -0.85138100    0.33439100
 H          4.26149797   -2.36061311    0.76890898
 H          2.94712996   -2.26422310    1.93858397
 H          4.23024416   -1.02662396    1.95508301
