33
wb97x-d4 ma-def2-tzvp(-f) cpcm(dmso) E: -955.167656966889, G: -954.9464781
 C         -1.18314195    0.07632300    0.50866097
 C         -1.34773099   -1.07468104   -0.50303900
 O         -1.27765298   -2.34151912    0.11447400
 C         -0.42691499   -0.83967400   -1.67088902
 O          0.89552599   -1.15240502   -1.60711396
 C         -0.65349603    0.50235099   -2.31442094
 C         -0.49422699    1.58569503   -1.22467303
 C         -0.81861103    2.96472001   -1.74924302
 O         -0.42694399    3.93659711   -0.77727503
 O         -1.39462197    1.31613302   -0.14316700
 O          0.24285901    0.73373502   -3.39256811
 O          0.07971000   -0.01206500    1.09369397
 H          0.54001999    1.56638002   -0.86152202
 H         -1.96569705    0.02407900    1.27539694
 H         -1.67215705    0.56177098   -2.71028495
 C          0.23736900    0.83421397    2.22659206
 H         -0.33815300   -2.58222008    0.28457099
 H         -0.27524000    3.11858392   -2.68579292
 H         -1.89514804    3.03001904   -1.94840097
 H          1.07766795    0.30949399   -3.15033889
 H          1.12451601   -1.80432904   -0.87159300
 H         -0.63566703    4.80814505   -1.13103199
 H          0.18141200    1.88944495    1.94265401
 H          1.22098994    0.62218499    2.64548111
 H         -0.53295797    0.61958599    2.97643805
 H         -2.36766100   -0.96664000   -0.88591498
 O          3.07510900   -1.65525401    1.17714405
 O          1.36174703   -2.80279708    0.32145399
 C          1.51467502   -2.66648889    2.69010091
 C          2.04252696   -2.33320904    1.30447400
 H          1.47632504   -3.75165796    2.81467390
 H          0.49491701   -2.28568196    2.78286505
 H          2.14065504   -2.23082995    3.46859598
