33
wb97x-d4 ma-def2-tzvp(-f) cpcm(dmso) E: -955.171141052355, G: -954.9502975
 C         -2.43360710    0.42620900    0.08895100
 C         -1.80052900   -0.88713098   -0.41191801
 O         -2.38431311   -2.01479506    0.21548299
 C         -0.30699000   -0.83183002   -0.25280201
 O          0.12138400   -1.24140894    0.97017503
 C          0.30705500    0.39091501   -0.88972199
 C         -0.40405101    1.63500500   -0.33129200
 C          0.02561800    2.93015003   -0.99708599
 O         -0.24603100    2.94282198   -2.39680791
 O         -1.81591403    1.52573800   -0.55252200
 O          1.68647802    0.53819901   -0.64020598
 O         -2.31480193    0.48466900    1.48093104
 H         -0.19274600    1.70848203    0.74146801
 H         -3.48917603    0.48334500   -0.20273501
 H          0.09586000    0.35186499   -1.96743405
 C         -3.01095295    1.58683205    2.05579710
 H         -1.90931201   -2.14022303    1.04804695
 H         -0.48087600    3.76676393   -0.50133401
 H          1.10194600    3.05486798   -0.87954402
 H          2.14427304   -0.32320899   -0.82308501
 H          1.10805595   -1.43199599    0.98666000
 H         -1.19235206    2.78659391   -2.50392699
 H         -2.55156589    2.53696299    1.76911294
 H         -2.95416594    1.46889901    3.13764000
 H         -4.06128407    1.58466399    1.74230301
 H         -2.03735900   -0.94151199   -1.47839296
 O          3.05616093   -1.70943606   -1.03973496
 O          2.57637811   -2.10346603    1.10682905
 C          4.33984709   -3.36174393    0.11045200
 C          3.24724388   -2.30483389    0.05491300
 H          4.76746321   -3.42538691    1.11142600
 H          5.11966419   -3.15640092   -0.62311000
 H          3.88859606   -4.32960892   -0.12853400
