33
wb97x-d4 ma-def2-tzvp(-f) cpcm(dmso) E: -955.167382520165, G: -954.94646244
 C         -2.29691195    0.51439500    0.27388400
 C         -2.42071295   -0.72989303   -0.63207197
 O         -3.14830494   -1.75752699    0.01629400
 C         -1.05645096   -1.16079104   -1.09407902
 O         -0.42825499   -1.98575604   -0.21201600
 C         -0.29495099   -0.04003800   -1.74983394
 C         -0.20061199    1.11900902   -0.73801601
 C          0.44929999    2.35341692   -1.32351506
 O          0.54292297    3.40576410   -0.36450201
 O         -1.53420401    1.51446104   -0.37066999
 O          0.96559697   -0.39045700   -2.28827906
 O         -1.74019599    0.11928000    1.49353802
 H          0.35139099    0.79392099    0.14829600
 H         -3.28121591    0.96997303    0.43467200
 H         -0.90395802    0.32439700   -2.58514595
 C         -1.78415096    1.14045799    2.48610711
 H         -2.59641600   -2.07509589    0.74257100
 H          1.46622705    2.11608911   -1.63513994
 H         -0.12004400    2.68346095   -2.20197201
 H          1.46300495   -0.95959502   -1.65971005
 H          0.56318700   -2.00143290   -0.33765000
 H         -0.34797701    3.56047297   -0.02730000
 H         -1.41470098    0.69823098    3.41109610
 H         -2.81256199    1.49080205    2.63121510
 H         -1.14988399    1.98703504    2.20744300
 H         -3.01029396   -0.41643900   -1.49730599
 O          2.52444100   -0.37061101    0.92396998
 O          2.18151808   -2.05575395   -0.50615197
 C          4.07623720   -2.19792104    0.92035401
 C          2.83968210   -1.46390998    0.42506599
 H          4.63888979   -1.59217405    1.63033199
 H          4.71256685   -2.46556211    0.07388800
 H          3.76683402   -3.12821102    1.40463495
