33
wb97x-d4 ma-def2-tzvp(-f) cpcm(dmso) E: -955.168772708642, G: -954.94633081
 C         -2.06271410    0.31198099    0.46509501
 C         -2.29521108   -0.78614497   -0.59539402
 O         -2.93921304   -1.91156197   -0.02720200
 C         -0.98546100   -1.12141502   -1.25933695
 O         -0.27838501   -2.07928300   -0.60414898
 C         -0.31036299    0.10387500   -1.81753302
 C         -0.12432500    1.13478100   -0.68459702
 C          0.41621301    2.46922708   -1.18240905
 O          1.77010906    2.37157798   -1.60836601
 O         -1.40567195    1.42320204   -0.11539200
 O          0.89507103   -0.13330600   -2.53334808
 O         -1.33660698   -0.24522801    1.52160001
 H          0.54861403    0.73413700    0.08093200
 H         -3.01889992    0.70815402    0.82721603
 H         -1.00775898    0.55778098   -2.53036690
 C         -1.22274303    0.61771500    2.64896894
 H         -2.27754593   -2.36362195    0.51297599
 H         -0.22523500    2.83750796   -1.99406004
 H          0.38400301    3.19305205   -0.36517900
 H          1.50186503   -0.67276198   -1.97643304
 H          0.71887398   -1.96358705   -0.67761999
 H          1.80802405    1.60730600   -2.20429301
 H         -0.74076802    0.04261300    3.43941307
 H         -2.21314406    0.94498497    2.98530507
 H         -0.61308903    1.49489796    2.41395807
 H         -2.97838497   -0.35894701   -1.33363402
 O          2.26649690   -1.65521097   -0.81196898
 O          3.99709797   -0.53962702    0.04162600
 C          2.32188296   -1.34785199    1.55374098
 C          2.92531300   -1.15172195    0.17040600
 H          2.94181490   -0.88622499    2.32141709
 H          2.22278500   -2.41744590    1.75609195
 H          1.31735802   -0.91885400    1.58253896
