33
wb97x-d4 ma-def2-tzvp(-f) cpcm(dmso) E: -955.167258950464, G: -954.94632493
 C         -2.57397509    0.46852800    0.05996500
 C         -2.24976993   -0.88047802   -0.62061501
 O         -2.95378995   -1.94259501   -0.00370500
 C         -0.75882798   -1.09269297   -0.65170598
 O         -0.28300700   -1.66068697    0.48702300
 C         -0.05773600    0.07482800   -1.29411900
 C         -0.41674700    1.35195196   -0.50583398
 C          0.16857199    2.61003494   -1.13576198
 O          1.58055401    2.67350006   -0.97939599
 O         -1.83843803    1.51698995   -0.54180199
 O          1.34355295   -0.05474000   -1.49078202
 O         -2.31081295    0.35037300    1.42849600
 H         -0.06755700    1.26438498    0.52944201
 H         -3.62552810    0.73394197   -0.10028800
 H         -0.50034499    0.20282499   -2.28854895
 C         -2.74554491    1.47895002    2.18219709
 H         -2.52793694   -2.09991288    0.84935403
 H         -0.11228000    2.64330101   -2.19707608
 H         -0.25597101    3.48755693   -0.64318597
 H          1.76619601   -0.51012599   -0.72669500
 H          0.71515501   -1.57659805    0.59234703
 H          1.91551304    1.80878699   -1.26655900
 H         -2.59694409    1.23504806    3.23371601
 H         -3.80760193    1.67830503    1.99917400
 H         -2.16318107    2.36934304    1.92955303
 H         -2.61917901   -0.79843599   -1.64571595
 O          2.72299910   -3.48186803    1.07760596
 O          2.27435803   -1.33504200    0.65578699
 C          4.47384977   -2.10105991    0.18880901
 C          3.05627203   -2.35332108    0.68098801
 H          4.43682194   -1.72283304   -0.83586502
 H          5.07417011   -3.00935197    0.22543500
 H          4.93716192   -1.32890499    0.80776101
