33
wb97x-d4 ma-def2-tzvp(-f) cpcm(dmso) E: -955.168321439472, G: -954.94632006
 C         -2.31800508    0.54061902    0.19799501
 C         -2.45473790   -0.54419303   -0.89181602
 O         -3.36199999   -1.55254996   -0.48707899
 C         -1.09145498   -1.07220197   -1.24529600
 O         -0.68586600   -2.08624792   -0.43663001
 C         -0.15664300    0.03566700   -1.64599204
 C         -0.07225600    1.05922306   -0.49295300
 C          0.73128003    2.29803801   -0.86769301
 O          2.11678600    2.01158500   -1.02050900
 O         -1.39355302    1.53316605   -0.20772099
 O          1.13030398   -0.36436599   -2.10097408
 O         -1.94748902   -0.07776100    1.39457905
 H          0.36443701    0.58896798    0.39622501
 H         -3.26518512    1.07821095    0.32473999
 H         -0.62742299    0.56480902   -2.48244309
 C         -2.01331711    0.79204899    2.52140498
 H         -2.91289496   -2.07240701    0.19220300
 H          0.31520399    2.72800994   -1.78865302
 H          0.63843602    3.04078197   -0.07207100
 H          1.50914001   -1.03675103   -1.48574102
 H          0.31388599   -2.16090989   -0.34833300
 H          2.16221809    1.21294403   -1.57047403
 H         -3.00588894    1.25105202    2.59458089
 H         -1.25534904    1.57797205    2.45719910
 H         -1.82873905    0.17999400    3.40404701
 H         -2.89045191   -0.04802700   -1.76268303
 O          1.89509201   -2.14879107   -0.28341201
 O          1.92180204   -2.07956409    1.94743800
 C          3.70833111   -1.01251698    0.75787902
 C          2.41584802   -1.80708897    0.84189898
 H          4.41594410   -1.52056706    0.09899600
 H          4.15136814   -0.87379199    1.74367905
 H          3.49117708   -0.03535100    0.31761199
