33
wb97x-d4 ma-def2-tzvp(-f) cpcm(dmso) E: -955.16710155759, G: -954.94628777
 C         -2.45224690    0.35284001    0.20827700
 C         -2.07211590   -0.95568103   -0.51849401
 O         -2.58595705   -2.08177400    0.16868000
 C         -0.58209199   -1.01003695   -0.72724903
 O          0.08132000   -1.52043998    0.34498599
 C         -0.08201500    0.22308201   -1.43408000
 C         -0.47686499    1.45386195   -0.59268498
 C         -0.10546200    2.76948404   -1.26549006
 O          1.30290997    2.96832299   -1.30153894
 O         -1.90228498    1.47098899   -0.46140900
 O          1.29214096    0.23265800   -1.79184496
 O         -2.02233100    0.26228699    1.53511798
 H         -0.00314800    1.39937401    0.39468899
 H         -3.53702092    0.50868499    0.17140201
 H         -0.64618200    0.30560100   -2.37008905
 C         -2.50643992    1.32191002    2.35525990
 H         -2.07209802   -2.16856790    0.98208499
 H         -0.53050900    2.78771091   -2.27804399
 H         -0.53894901    3.59600496   -0.69779301
 H          1.85366201   -0.10538100   -1.04623401
 H          1.06278706   -1.34290600    0.31647101
 H          1.67407703    2.13679790   -1.63881695
 H         -2.07164192    2.28037500    2.05771494
 H         -2.21057796    1.09164596    3.37858510
 H         -3.59897709    1.38560104    2.29505897
 H         -2.56746197   -0.91844100   -1.49182296
 O          4.36226702   -1.52093196   -0.98006302
 O          2.59697795   -0.86719900    0.22006300
 C          3.68081188   -2.88013911    0.87402803
 C          3.55765390   -1.67732096   -0.04828300
 H          3.91207600   -2.53173208    1.88422096
 H          4.46298504   -3.55953312    0.53671098
 H          2.72471094   -3.40714788    0.92059100
