33
wb97x-d4 ma-def2-tzvp(-f) cpcm(dmso) E: -955.167205069264, G: -954.9462847899999
 C         -2.54676008    0.52226299    0.04400800
 C         -2.26802397   -0.80121702   -0.70271403
 O         -3.03227091   -1.86129200   -0.15861399
 C         -0.78728598   -1.07729995   -0.70874298
 O         -0.36848000   -1.72993004    0.40719399
 C         -0.01838000    0.08697800   -1.27486098
 C         -0.34355301    1.34336698   -0.44134000
 C          0.29302701    2.60354495   -1.01496100
 O          1.70817196    2.60255599   -0.86692297
 O         -1.75663400    1.56734705   -0.49053800
 O          1.38030100   -0.09891800   -1.43843400
 O         -2.31273794    0.32184401    1.40654194
 H         -0.01459100    1.20251596    0.59503698
 H         -3.58239102    0.84389299   -0.11940400
 H         -0.42286000    0.27821800   -2.27543402
 C         -2.73083496    1.41825604    2.21451998
 H         -2.63864207   -2.07456112    0.69755203
 H          0.00988400    2.69837403   -2.07197189
 H         -0.09111600    3.47439408   -0.47887000
 H          1.76537395   -0.55163997   -0.64967299
 H          0.61730599   -1.64394403    0.57931101
 H          2.00331998    1.73140395   -1.17733502
 H         -3.78626299    1.65023994    2.03107810
 H         -2.12532592    2.30704308    2.01538110
 H         -2.59917808    1.11530304    3.25311208
 H         -2.61019897   -0.64869100   -1.72927296
 O          2.17231894   -1.38543606    0.74551499
 O          2.77576900   -3.48535895    1.20544100
 C          4.33687687   -2.07641912    0.05062500
 C          3.00344610   -2.36531806    0.72231197
 H          4.79378319   -1.19474602    0.50596797
 H          4.16213083   -1.84621298   -1.00416505
 H          5.01381588   -2.92655301    0.12965800
