33
wb97x-d4 ma-def2-tzvp(-f) cpcm(dmso) E: -955.166642473811, G: -954.9461966
 C         -2.21335912    0.02348700    0.10656600
 C         -1.40738797   -0.86748803    1.07714999
 O         -1.42983496   -0.34585801    2.42283511
 C         -0.00786400   -0.97466999    0.60713202
 O          0.64125597   -2.13571191    0.84499699
 C          0.72664398    0.24966501    0.17449400
 C         -0.26919100    1.40965295    0.10867300
 C          0.28251699    2.60854411   -0.65037602
 O          1.37832797    3.20928192    0.03327600
 O         -1.42684400    0.96870100   -0.59278202
 O          1.78966606    0.64369297    1.06477702
 O         -3.22884989    0.64623898    0.84558702
 H         -0.52951199    1.71649098    1.12746000
 H         -2.65846491   -0.60389799   -0.67318797
 H          1.16006899    0.10003600   -0.82605702
 C         -4.23689604    1.24494505    0.03429200
 H         -2.31961298    0.00443700    2.56845689
 H          0.57789803    2.29022098   -1.65884495
 H         -0.50132799    3.36400509   -0.74307901
 H          2.50089407   -0.01781200    0.93357497
 H          1.63115001   -2.02044511    0.69310802
 H          1.90863800    2.48368692    0.40046501
 H         -4.67673588    0.50003600   -0.63826299
 H         -3.82534194    2.06977606   -0.55291200
 H         -5.00286722    1.62430298    0.71019000
 H         -1.87399304   -1.85853696    1.07786500
 O          4.68948889   -1.14444494   -1.08862603
 O          3.15206790   -1.61914098    0.45569900
 C          3.00858402   -2.76876092   -1.62634897
 C          3.68570995   -1.76613295   -0.70130098
 H          2.86603999   -3.71850705   -1.10595000
 H          3.59084511   -2.92613602   -2.53387809
 H          2.01828194   -2.38965607   -1.89498997
