33
wb97x-d4 ma-def2-tzvp(-f) cpcm(dmso) E: -955.167874566771, G: -954.94615203
 C         -1.61409998    0.16193300    0.47577301
 C         -1.02152598   -0.98155302   -0.37083000
 O         -0.74974102   -2.12853909    0.40532199
 C          0.11546100   -0.44683999   -1.20650601
 O          1.35579801   -0.26035601   -0.68816203
 C         -0.31477001    0.72371602   -2.04438710
 C         -0.89029902    1.80523598   -1.10881495
 C         -1.46020997    2.99884391   -1.86326504
 O         -0.43823001    3.76729012   -2.49041390
 O         -1.97571504    1.24604404   -0.36517000
 O          0.75982302    1.24826097   -2.82339597
 O         -0.68595201    0.52903998    1.45190001
 H         -0.09995300    2.14633489   -0.42990300
 H         -2.55466104   -0.15480000    0.94230098
 H         -1.10581398    0.42348501   -2.73829389
 C         -1.21250105    1.44433200    2.40942311
 H          0.10170000   -2.02191091    0.87534398
 H         -2.19184804    2.64492989   -2.60168791
 H         -1.97478294    3.65561604   -1.15819502
 H          1.56089997    1.15093505   -2.28884411
 H          1.58598495   -0.90032297    0.06620500
 H          0.16270199    3.13339996   -2.91126990
 H         -0.44925401    1.57525301    3.17633891
 H         -2.12420988    1.04148102    2.86511803
 H         -1.43651700    2.41087890    1.94898605
 H         -1.81868601   -1.25620496   -1.06900203
 O          1.81983304   -1.84616804    1.26822901
 O          3.57753110   -2.73751998    0.21775299
 C          2.62295604   -3.93880391    2.05969596
 C          2.70171404   -2.76283097    1.09907305
 H          2.62360692   -3.57628894    3.09011507
 H          3.45236492   -4.62920094    1.90888405
 H          1.67839098   -4.46566677    1.89768302
