33
wb97x-d4 ma-def2-tzvp(-f) cpcm(dmso) E: -955.167674033233, G: -954.94599794
 C         -2.63470697    0.47365999    0.03072200
 C         -2.02676296   -0.92017299   -0.08749600
 O         -2.81008410   -1.84111202    0.66473699
 C         -0.58437401   -0.91503698    0.31720200
 O         -0.04917000   -2.16302204    0.35219601
 C          0.25953001    0.22140899   -0.18161100
 C         -0.51400900    1.54006398   -0.10867500
 C          0.16568901    2.65344596   -0.89656699
 O          1.41034198    3.03620410   -0.31959999
 O         -1.81653500    1.39370203   -0.67225498
 O          1.45765698    0.41131499    0.57887101
 O         -2.78020310    0.80697203    1.37759900
 H         -0.59043300    1.83706498    0.94242501
 H         -3.60493398    0.51595098   -0.47700101
 H          0.53387898    0.03493700   -1.23471606
 C         -3.50880504    2.01644301    1.57429504
 H         -2.35192895   -2.68987393    0.62831599
 H          0.30240899    2.32764792   -1.93594694
 H         -0.48118201    3.53367710   -0.89384502
 H          2.00608301   -0.39545801    0.48036799
 H          0.95941699   -2.13977003    0.34468600
 H          1.84455097    2.21887803   -0.02713300
 H         -3.66603088    2.11942697    2.64761090
 H         -4.47789717    1.96755397    1.06493199
 H         -2.94925594    2.87991595    1.20299494
 H         -2.09370208   -1.18848205   -1.15614498
 O          2.58873010   -2.52921605   -1.78957701
 O          2.55857396   -2.06032205    0.39666200
 C          4.65029001   -2.64152098   -0.56956297
 C          3.15441298   -2.39529610   -0.69151801
 H          5.13098192   -1.76735699   -0.12428100
 H          5.09764290   -2.85474992   -1.54007196
 H          4.81982613   -3.48687601    0.10238600
