33
wb97x-d4 ma-def2-tzvp(-f) cpcm(dmso) E: -955.167540395529, G: -954.94596967
 C         -2.56633711    0.44292000    0.11140800
 C         -2.18239594   -0.88286602   -0.58039802
 O         -2.79565692   -1.98486197    0.06323900
 C         -0.68571597   -1.00041199   -0.67792898
 O         -0.11264900   -1.53107703    0.43562001
 C         -0.07455100    0.20769900   -1.33240604
 C         -0.48589200    1.45396495   -0.52120399
 C          0.00513800    2.75104308   -1.15084004
 O          1.41619897    2.89349198   -1.03217101
 O         -1.91509902    1.53421402   -0.51075298
 O          1.33192694    0.15562899   -1.53609896
 O         -2.25321698    0.33853701    1.47009301
 H         -0.10046800    1.37503099    0.50175500
 H         -3.63617897    0.64385402   -0.01587300
 H         -0.53578001    0.31894001   -2.32023406
 C         -2.77136993    1.41350996    2.24893093
 H         -2.36516905   -2.08250999    0.92234200
 H         -0.30529901    2.78148293   -2.20395589
 H         -0.45426100    3.59686494   -0.63439900
 H          1.76748598   -0.35916901   -0.81787199
 H          0.88629001   -1.47860098    0.40641800
 H          1.79091299    2.04090905   -1.30722797
 H         -2.56038308    1.17997503    3.29196501
 H         -3.85394001    1.50425994    2.10560703
 H         -2.29099202    2.35921192    1.98301399
 H         -2.59789896   -0.82880598   -1.58967805
 O          2.67378211   -3.09885097   -0.79814303
 O          2.50140595   -1.25504196    0.45491800
 C          4.50931311   -2.51679111    0.62985402
 C          3.12870407   -2.29511309    0.03348500
 H          5.11777878   -1.61960697    0.49239099
 H          5.00346422   -3.37330890    0.17259800
 H          4.41085815   -2.68451810    1.70554495
