33
wb97x-d4 ma-def2-tzvp(-f) cpcm(dmso) E: -955.166899217988, G: -954.9459639199999
 C         -1.71780503    0.21729600    0.31747201
 C         -1.08587205   -1.00934005   -0.36724299
 O         -1.10625303   -2.14972210    0.46563801
 C          0.25047401   -0.62236500   -0.94237900
 O          1.35805297   -0.55082899   -0.15807500
 C          0.15681501    0.55528498   -1.87549496
 C         -0.51288098    1.72075498   -1.11403704
 C         -0.77193803    2.91903496   -2.00506496
 O         -1.21315801    4.06582403   -1.27722204
 O         -1.78026199    1.29209602   -0.59986901
 O          1.43201900    0.94175398   -2.36913705
 O         -0.97553301    0.52531397    1.46293902
 H          0.14339800    2.01624894   -0.28592601
 H         -2.76095796    0.01224100    0.58587199
 H         -0.47351101    0.30030799   -2.73346090
 C         -1.56850600    1.54995501    2.25634193
 H         -0.37276000   -2.11187196    1.10966003
 H          0.13858899    3.14427590   -2.56712008
 H         -1.56812096    2.67746305   -2.71328592
 H          2.06805897    0.74661201   -1.66677499
 H          1.33505702   -1.18298805    0.63351703
 H         -0.48034900    4.36781120   -0.72738498
 H         -2.60040808    1.28770399    2.51615405
 H         -1.56253397    2.50939894    1.73167896
 H         -0.97344500    1.63026202    3.16565490
 H         -1.74098897   -1.22867203   -1.21597505
 O          1.69033599   -4.10132980    2.75752497
 O          1.25444603   -2.08879995    1.89797699
 C          2.74174500   -3.50902700    0.68679500
 C          1.83524001   -3.23428297    1.87961495
 H          2.13382196   -3.53271389   -0.22205400
 H          3.26202607   -4.45931911    0.79798502
 H          3.46520591   -2.69837809    0.57568300
