33
wb97x-d4 ma-def2-tzvp(-f) cpcm(dmso) E: -955.167305856359, G: -954.94594089
 C         -2.40796399    0.23458099    0.20890500
 C         -1.90635502   -1.07003498   -0.44800600
 O         -2.32858491   -2.20107698    0.29114100
 C         -0.41422400   -1.00554395   -0.64272302
 O          0.27931899   -1.39307296    0.45848000
 C         -0.01950100    0.23020899   -1.40888298
 C         -0.52583200    1.46157300   -0.63017899
 C         -0.25918099    2.77047300   -1.36214399
 O          1.12553203    3.09623289   -1.38223004
 O         -1.94886601    1.36250901   -0.51108599
 O          1.35301900    0.35023099   -1.76071703
 O         -1.98936403    0.24911100    1.54248905
 H         -0.06030100    1.49385798    0.36182699
 H         -3.50163102    0.29284501    0.15508500
 H         -0.57967198    0.21790899   -2.35075593
 C         -2.58405089    1.29796195    2.30233312
 H         -1.82747900   -2.19593191    1.11695099
 H         -0.66057599    2.70069909   -2.38215804
 H         -0.77871901    3.58037496   -0.84492099
 H          1.93653297    0.01065600   -1.04431105
 H          1.26100397   -1.17568398    0.40402499
 H          1.58012795    2.28730106   -1.66735303
 H         -2.26922989    1.15893900    3.33642411
 H         -3.67710900    1.24416494    2.24149299
 H         -2.25013494    2.27750397    1.94848394
 H         -2.39204192   -1.12453997   -1.42538798
 O          4.83103609   -1.25243902   -0.30052799
 O          2.75018907   -0.68851501    0.27308100
 C          3.44958997   -2.91781402    0.73271900
 C          3.72281599   -1.52353001    0.18733600
 H          2.63945293   -3.37477589    0.15776300
 H          3.11523294   -2.84726810    1.77059400
 H          4.33696508   -3.54690599    0.67224997
