33
wb97x-d4 ma-def2-tzvp(-f) cpcm(dmso) E: -955.171583870048, G: -954.94979586
 C         -2.54067206    0.34323600    0.01668800
 C         -1.84392095   -0.96449798   -0.40954101
 O         -2.38622499   -2.08416700    0.26572001
 C         -0.35683000   -0.83823597   -0.23246700
 O          0.08133400   -1.19292200    1.00306594
 C          0.21036400    0.38653499   -0.90133297
 C         -0.56553698    1.62150097   -0.40973499
 C         -0.16592400    2.89553094   -1.14362800
 O          1.15753698    3.30772996   -0.81851500
 O         -1.95900404    1.43816102   -0.66908401
 O          1.58074903    0.60415101   -0.63600200
 O         -2.44873500    0.47314200    1.40441704
 H         -0.39118499    1.74808002    0.66450602
 H         -3.59170294    0.34236500   -0.29642799
 H          0.02301000    0.30403501   -1.98293996
 C         -3.20436692    1.56847501    1.91330004
 H         -1.90821505   -2.15420890    1.10305202
 H         -0.27191100    2.73533511   -2.22499800
 H         -0.84083003    3.70268106   -0.84909898
 H          2.09719801   -0.23195900   -0.81912798
 H          1.06821704   -1.39411104    1.00781500
 H          1.70104599    2.50302196   -0.83351701
 H         -2.78214407    2.52347398    1.58747697
 H         -3.16235590    1.50518203    3.00050712
 H         -4.24717999    1.50253999    1.58206701
 H         -2.06382704   -1.08108997   -1.47502196
 O          3.03433895   -1.53670299   -1.04123902
 O          2.53374290   -2.05241394    1.07494998
 C          4.31580400   -3.24074101    0.02782400
 C          3.21708202   -2.19094896    0.02189800
 H          3.87842298   -4.19260883   -0.28897199
 H          4.72256708   -3.37168097    1.03102601
 H          5.10915089   -2.97888303   -0.67266601
