33
wb97x-d4 ma-def2-tzvp(-f) cpcm(dmso) E: -955.166986379455, G: -954.94562287
 C         -2.40981007    0.55408001    0.13470800
 C         -2.27771902   -0.75055301   -0.68254101
 O         -3.05319095   -1.78965902   -0.11212500
 C         -0.82271802   -1.10775101   -0.83088100
 O         -0.34954700   -1.83677697    0.21420600
 C         -0.02123800    0.02521700   -1.41966105
 C         -0.20323500    1.26032495   -0.51523602
 C          0.46041599    2.50151896   -1.07553506
 O          0.26264599    3.63334394   -0.22982401
 O         -1.60492003    1.56746197   -0.43877500
 O          1.33835399   -0.25160700   -1.69527197
 O         -2.06698704    0.28777799    1.46328700
 H          0.18498500    1.05512905    0.48896301
 H         -3.43396497    0.94123900    0.07736900
 H         -0.48749900    0.27662501   -2.37879705
 C         -2.35276890    1.37170804    2.34385395
 H         -2.59535098   -2.06521797    0.69308102
 H          1.53542101    2.33996511   -1.14730799
 H          0.06653000    2.69848108   -2.08082294
 H          1.77222705   -0.63712603   -0.90311098
 H          0.63796997   -1.72759604    0.37644100
 H         -0.68885398    3.71635604   -0.08906300
 H         -1.72062004    2.23631597    2.12238908
 H         -2.14688802    1.02148902    3.35489511
 H         -3.40611005    1.66349697    2.26470304
 H         -2.69974804   -0.53475499   -1.66708601
 O          2.18687892   -1.43881500    0.56518102
 O          2.57489300   -3.60309100    0.96012801
 C          4.34088993   -2.28203106    0.01547700
 C          2.93408489   -2.48363805    0.55858701
 H          4.91881704   -3.20465803    0.05639100
 H          4.84636497   -1.50554204    0.59464800
 H          4.28069496   -1.93171597   -1.01827002
