33
wb97x-d4 ma-def2-tzvp(-f) cpcm(dmso) E: -955.167444231922, G: -954.94558312
 C         -2.28937793    0.35784400    0.16393200
 C         -1.91240096   -1.01301205   -0.43902701
 O         -2.48759604   -2.07163596    0.30523899
 C         -0.41709700   -1.11602902   -0.56858301
 O          0.18682501   -1.54444098    0.57200402
 C          0.16892400    0.03623300   -1.34245002
 C         -0.23953000    1.33982098   -0.62894899
 C          0.19158401    2.58155990   -1.38244295
 O         -0.19511300    3.77324891   -0.70106101
 O         -1.67322397    1.39898300   -0.56910902
 O          1.56254697   -0.03526300   -1.57769895
 O         -1.92687094    0.36754999    1.51335204
 H          0.17560899    1.35734797    0.38556400
 H         -3.36576295    0.53904098    0.05994100
 H         -0.31556401    0.05210000   -2.32492995
 C         -2.41889906    1.50556195    2.21605706
 H         -2.01389503   -2.10882711    1.14643204
 H          1.27788103    2.59912705   -1.46567202
 H         -0.23848701    2.55892110   -2.39184904
 H          2.03172112   -0.27379799   -0.75105101
 H          1.16356301   -1.32061899    0.60756600
 H         -1.14687800    3.71597505   -0.55054301
 H         -3.50584507    1.58716905    2.10165000
 H         -1.94743204    2.42419195    1.85532200
 H         -2.17270899    1.35973001    3.26758790
 H         -2.36105299   -1.03935003   -1.43511200
 O          4.72340012   -1.61283302    1.27127004
 O          2.69143701   -0.83418298    0.78402501
 C          3.28429294   -2.98528194   -0.06651800
 C          3.61367798   -1.72606099    0.72528201
 H          2.94601393   -2.71383905   -1.06949794
 H          2.46217108   -3.51366591    0.42358401
 H          4.14809179   -3.64556503   -0.13431300
