33
wb97x-d4 ma-def2-tzvp(-f) cpcm(dmso) E: -955.166752874536, G: -954.94556199
 C         -2.19628310    0.37486199    0.28896800
 C         -2.12221098   -0.91204703   -0.56007600
 O         -2.64421010   -2.02085900    0.14829600
 C         -0.70248801   -1.11965704   -1.01668000
 O          0.05383500   -1.82330704   -0.13407999
 C         -0.13916799    0.08292700   -1.73064995
 C         -0.27892700    1.31144094   -0.81040198
 C          0.10695400    2.60366106   -1.50132895
 O         -0.02601800    3.72627401   -0.63233501
 O         -1.65746999    1.46122599   -0.44162899
 O          1.17910397   -0.07136700   -2.22282505
 O         -1.52271402    0.15697099    1.49292803
 H          0.33162600    1.17542899    0.08914600
 H         -3.23980498    0.65263700    0.48075899
 H         -0.77838802    0.27009800   -2.60085511
 C         -1.68675900    1.22326899    2.42390490
 H         -1.95486295   -2.29576802    0.76771599
 H          1.15207100    2.55738807   -1.80665600
 H         -0.51587498    2.73338509   -2.39574504
 H          1.77466798   -0.27543399   -1.47408497
 H          0.99569303   -1.46857202   -0.03570500
 H         -0.92886800    3.71238208   -0.29130700
 H         -2.75050712    1.41924703    2.60103202
 H         -1.20643198    2.13760495    2.06327391
 H         -1.21411300    0.90790898    3.35399699
 H         -2.76613212   -0.74168998   -1.42682505
 O          4.59025478   -1.03236699    0.44914100
 O          2.40389299   -0.79374403    0.08357300
 C          3.14443111   -2.86575603    0.99679399
 C          3.42586994   -1.46350205    0.47283399
 H          2.46189404   -2.80455303    1.84848905
 H          4.06354094   -3.36567712    1.30043006
 H          2.64739609   -3.45241594    0.21990301
