33
wb97x-d4 ma-def2-tzvp(-f) cpcm(dmso) E: -955.167212769354, G: -954.94542622
 C         -2.55611396    0.48606899    0.05900800
 C         -2.25495601   -0.82374901   -0.70293999
 O         -2.98325801   -1.90704501   -0.15426201
 C         -0.76951802   -1.06053698   -0.73920298
 O         -0.30748999   -1.70227206    0.36520100
 C         -0.04596000    0.12604800   -1.31481099
 C         -0.38108501    1.36627102   -0.45952699
 C          0.21413900    2.64815807   -1.02738500
 O          1.63237202    2.67508411   -0.90460002
 O         -1.80058205    1.55664504   -0.47607300
 O          1.35464501   -0.02187500   -1.51326394
 O         -2.29625297    0.27849999    1.41597199
 H         -0.02786800    1.21963799    0.56793499
 H         -3.60124707    0.78314698   -0.08731500
 H         -0.47714299    0.31670201   -2.30409288
 C         -2.74854803    1.34579802    2.24479103
 H         -2.58661294   -2.10099411    0.70492101
 H         -0.08982500    2.75244689   -2.07760692
 H         -0.17769399    3.50322104   -0.47191200
 H          1.76604497   -0.49174300   -0.75042897
 H          0.68633401   -1.60456002    0.50589299
 H          1.93776298    1.81075895   -1.22511995
 H         -2.18663597    2.26297092    2.04671502
 H         -2.58495998    1.03565896    3.27665591
 H         -3.81627202    1.53212702    2.08212709
 H         -2.62148809   -0.67313701   -1.72145402
 O          2.68422890   -3.47878098    1.05334795
 O          2.23318195   -1.33509505    0.62230700
 C          4.43852615   -2.09687591    0.17661500
 C          3.01934290   -2.35094905    0.65859002
 H          5.06012392   -2.98524094    0.28521299
 H          4.87552595   -1.26879203    0.73953599
 H          4.41127920   -1.79760003   -0.87483400
