33
wb97x-d4 ma-def2-tzvp(-f) cpcm(dmso) E: -955.168332004642, G: -954.94535819
 C         -2.30900311    0.50333798    0.24446701
 C         -2.47229099   -0.64080697   -0.77893198
 O         -3.34950709   -1.63624001   -0.28548399
 C         -1.11396503   -1.17131305   -1.15319705
 O         -0.66209698   -2.12673593   -0.29899499
 C         -0.21117800   -0.07408700   -1.65155995
 C         -0.09967100    1.01001406   -0.55851901
 C          0.67462498    2.23717403   -1.02484095
 O          2.05678010    1.95977199   -1.21618295
 O         -1.41520905    1.48365998   -0.24985901
 O          1.06252396   -0.48506600   -2.13243508
 O         -1.88380206   -0.04211300    1.45869100
 H          0.37592301    0.59188998    0.33680201
 H         -3.25880599    1.03430903    0.37992001
 H         -0.72191900    0.40050000   -2.49702311
 C         -1.93791294    0.88472801    2.53927302
 H         -2.86795998   -2.11005807    0.40534201
 H          0.21947201    2.61690307   -1.94948494
 H          0.60069299    3.01660109   -0.26308000
 H          1.47953498   -1.09728098   -1.48070800
 H          0.34059900   -2.16874003   -0.23289201
 H          2.09242797    1.13882601   -1.73270404
 H         -1.69392598    0.33007199    3.44515705
 H         -2.94409990    1.30974603    2.63013411
 H         -1.21497798    1.69395697    2.40138006
 H         -2.94547701   -0.19921800   -1.65938306
 O          2.00822306   -1.89537394    2.01388097
 O          1.92318797   -2.10845304   -0.20627400
 C          3.72460198   -0.85120302    0.70495099
 C          2.46235299   -1.67926300    0.87880498
 H          3.46051598    0.08815400    0.21135300
 H          4.42812014   -1.37753904    0.05608200
 H          4.19222021   -0.63615102    1.66531396
