33
wb97x-d4 ma-def2-tzvp(-f) cpcm(dmso) E: -955.170654223934, G: -954.9497549499999
 C         -1.71363902    0.32820499    0.49378401
 C         -0.84116203   -0.84261698    0.00375500
 O         -0.64085799   -1.74338400    1.06560099
 C          0.42135000   -0.30769399   -0.61928701
 O          1.50447702   -0.03018500    0.15481500
 C          0.17861800    0.73350799   -1.67595804
 C         -0.73451298    1.83030999   -1.09762204
 C         -1.18555605    2.82609606   -2.14497995
 O         -1.96041095    3.88155603   -1.57870603
 O         -1.92914200    1.22825694   -0.58076698
 O          1.39299595    1.29206800   -2.15630007
 O         -1.10544300    0.94845903    1.58777595
 H         -0.20311999    2.35363889   -0.29508099
 H         -2.71408105   -0.02893200    0.76632702
 H         -0.34697601    0.27656600   -2.52229309
 C         -1.92695796    1.94721198    2.18781090
 H          0.03503400   -2.41772699    0.79023898
 H         -0.31249401    3.28646588   -2.60760903
 H         -1.75821102    2.30010104   -2.91928792
 H          2.04021907    1.17488301   -1.44578195
 H          1.82391596   -0.84293598    0.66105300
 H         -2.70417690    3.47337794   -1.11834204
 H         -1.39612198    2.30428910    3.06982589
 H         -2.89157701    1.52222598    2.48814392
 H         -2.09904504    2.78266692    1.50344598
 H         -1.43018794   -1.30309105   -0.80328798
 O          1.18673003   -3.58239007    0.46399501
 O          2.63123107   -2.07824898    1.27111304
 C          3.38645697   -4.32363176    1.02920496
 C          2.31437993   -3.25105000    0.91964400
 H          4.04990292   -4.12198782    1.87085402
 H          3.98580289   -4.30135107    0.11397800
 H          2.94256091   -5.31466103    1.12393796
