33
wb97x-d4 ma-def2-tzvp(-f) cpcm(dmso) E: -955.168408518608, G: -954.9449961299999
 C         -2.19318199    0.37575299    0.38300601
 C         -2.51029706   -0.76509100   -0.61134499
 O         -3.18247795   -1.83247495    0.03322500
 C         -1.24805701   -1.18356395   -1.31233299
 O         -0.52603298   -2.12582707   -0.63258702
 C         -0.51732498   -0.03470100   -1.95498097
 C         -0.23090200    0.99301100   -0.84047502
 C          0.51820397    2.22850800   -1.31258404
 O          1.37163103    2.75081992   -0.29679200
 O         -1.47991002    1.40919399   -0.26483899
 O          0.65518600   -0.41621801   -2.64766693
 O         -1.48559701   -0.16984899    1.46116698
 H          0.37124899    0.50473499   -0.07063600
 H         -3.11784792    0.84682500    0.73687702
 H         -1.18815899    0.43572199   -2.68197799
 C         -1.27576804    0.75754797    2.52279305
 H         -2.54465890   -2.24391294    0.63091898
 H          1.10119402    1.97459602   -2.20229506
 H         -0.19582801    3.01133490   -1.57765603
 H          1.32703197   -0.70453799   -1.98243999
 H          0.44245800   -1.96722102   -0.69763899
 H          2.01839805    2.04311109   -0.11486000
 H         -0.84551197    0.19637901    3.35196996
 H         -2.22576308    1.20500505    2.83653688
 H         -0.58563399    1.55062103    2.22191811
 H         -3.20329595   -0.34467801   -1.34443402
 O          2.97051001    0.45164600    0.12801100
 O          2.14041495   -1.45569205   -0.69442397
 C          3.16328812   -1.53310001    1.45106697
 C          2.73719597   -0.77534199    0.20320100
 H          3.86203909   -0.95066899    2.05079389
 H          3.60755897   -2.49243093    1.18014705
 H          2.26988792   -1.73950398    2.04833198
