33
wb97x-d4 ma-def2-tzvp(-f) cpcm(dmso) E: -955.167695244631, G: -954.94494047
 C         -1.84794402    0.18319400    0.32536501
 C         -1.22519696   -1.00112498   -0.43919101
 O         -1.26002598   -2.19468999    0.31363600
 C          0.11746900   -0.58607399   -0.98691899
 O          1.22715104   -0.56018400   -0.20600501
 C          0.00964100    0.64611202   -1.83994496
 C         -0.63209301    1.76724398   -0.99805301
 C         -0.90269899    3.02923298   -1.80629301
 O          0.30158100    3.69715810   -2.16961789
 O         -1.90234196    1.32279205   -0.51714897
 O          1.27659500    1.06172097   -2.34922004
 O         -1.10570705    0.40978101    1.48527205
 H          0.03003300    2.00612092   -0.15753500
 H         -2.89467692   -0.02810200    0.57540298
 H         -0.64145100    0.45575401   -2.69871593
 C         -1.69311094    1.37984800    2.34750009
 H         -0.52842402   -2.20596409    0.96198601
 H         -1.49006903    2.76978993   -2.69722390
 H         -1.48878598    3.72350502   -1.19981503
 H          1.92939401    0.85707802   -1.66442800
 H          1.20631397   -1.23511004    0.55152297
 H          0.91336697    3.01178789   -2.47912002
 H         -1.10384500    1.38804400    3.26430297
 H         -2.72971606    1.11031795    2.58011699
 H         -1.67227995    2.37431693    1.89242899
 H         -1.88100600   -1.15598702   -1.30152297
 O          1.07536805   -2.22303796    1.73587704
 O          1.74237800   -4.14909220    2.64200807
 C          3.10182095   -3.17816901    0.92372602
 C          1.89040196   -3.20825601    1.84529901
 H          3.65840292   -2.25076294    1.08070195
 H          2.76533699   -3.18497992   -0.11641600
 H          3.75411391   -4.03226614    1.10202503
