33
wb97x-d4 ma-def2-tzvp(-f) cpcm(dmso) E: -955.167005143057, G: -954.94485594
 C         -1.44052804   -0.01399300    0.47941199
 C          0.03516300   -0.39588201    0.54314399
 O          0.30070800   -1.00044203    1.81185305
 C          0.85764700    0.81487602    0.25922900
 O          2.20949602    0.76132298    0.29989201
 C          0.23318900    2.07263899   -0.21300800
 C         -0.96939200    1.77295399   -1.11842096
 C         -0.49561399    1.52944398   -2.54442000
 O         -1.56702101    1.16897297   -3.40893412
 O         -1.73906898    0.60649502   -0.74589097
 O         -0.11602700    2.98195004    0.85761100
 O         -1.75137901    0.80607998    1.58161700
 H         -1.65284002    2.62706208   -1.09534395
 H         -2.06906390   -0.90977901    0.50682497
 H          0.96197599    2.62715197   -0.81023699
 C         -3.15094399    1.06008399    1.70942295
 H          1.16703200   -1.44415998    1.71104801
 H         -0.06180600    2.44843793   -2.94375896
 H          0.27600899    0.74879301   -2.54144311
 H         -0.70352203    2.47404194    1.43859100
 H          2.51603007   -0.16657700    0.54558098
 H         -1.99276996    0.39474800   -3.01990199
 H         -3.51645207    1.67217696    0.88059503
 H         -3.28891611    1.59519696    2.64838004
 H         -3.70626402    0.11657000    1.73901701
 H          0.18768600   -1.15653598   -0.23915200
 O          3.42303705   -2.18156409   -1.06802106
 O          2.81143808   -1.67210698    1.01984203
 C          2.63818789   -3.94737196    0.35092300
 C          2.99578404   -2.49835706    0.05625900
 H          2.92979193   -4.60301924   -0.46915200
 H          1.55723798   -4.01898098    0.50272101
 H          3.12119389   -4.27022696    1.27572095
