33
wb97x-d4 ma-def2-tzvp(-f) cpcm(dmso) E: -955.165884419734, G: -954.94470786
 C         -2.36079907    0.13575000    0.33498201
 C         -1.27405703   -0.72788203    1.01607704
 O         -0.89096099   -0.18846101    2.30049992
 C         -0.08750800   -0.81858897    0.13662700
 O          0.59864700   -1.98384404    0.12764101
 C          0.44612300    0.40257901   -0.53135002
 C         -0.54321599    1.54590905   -0.29478100
 C         -0.28302899    2.74037790   -1.20192003
 O          0.96233499    3.36417389   -0.90717900
 O         -1.85160100    1.07189405   -0.59464401
 O          1.72931504    0.83637601   -0.03469200
 O         -3.09781194    0.76646298    1.34779596
 H         -0.47862899    1.86530399    0.75092399
 H         -3.02105498   -0.51184201   -0.25151199
 H          0.54200202    0.23413600   -1.61457300
 C         -4.31181717    1.35444999    0.88461399
 H         -1.69620395    0.16909100    2.70026207
 H         -0.31669500    2.41044807   -2.24865198
 H         -1.06904900    3.48372197   -1.04942703
 H          2.37599206    0.17273800   -0.36067700
 H          1.49131000   -1.85742295   -0.32005101
 H          1.58997202    2.65076399   -0.70558500
 H         -4.84169388    1.72127199    1.76317000
 H         -4.92601109    0.60651499    0.37104300
 H         -4.10730219    2.18650389    0.20637900
 H         -1.69630003   -1.72671199    1.16920197
 O          5.10624409   -1.49767399   -0.68451899
 O          2.89228392   -1.40373898   -0.94924003
 C          3.82665992   -3.47908306   -0.25364900
 C          3.97843099   -2.01852894   -0.65633500
 H          3.25613809   -3.53536105    0.67775202
 H          4.79732084   -3.95266604   -0.11007400
 H          3.26096606   -4.01666021   -1.01811004
