33
wb97x-d4 ma-def2-tzvp(-f) cpcm(dmso) E: -955.16589884234, G: -954.94468045
 C         -2.36574292    0.13038400    0.30608299
 C         -1.28906703   -0.75133801    0.97974902
 O         -0.92091602   -0.24250001    2.28093505
 C         -0.09156800   -0.82343000    0.11349200
 O          0.59395599   -1.98873699    0.08718300
 C          0.45255199    0.41240299   -0.51787502
 C         -0.53803301    1.55158198   -0.26632601
 C         -0.26380101    2.76701498   -1.14089000
 O          0.98050100    3.37846994   -0.81665701
 O         -1.84306300    1.08718204   -0.59453398
 O          1.73009098    0.83203101    0.00497700
 O         -3.11352801    0.73830098    1.32489002
 H         -0.48651800    1.84564805    0.78749901
 H         -3.02023101   -0.50134999   -0.30367100
 H          0.56186301    0.27001801   -1.60354495
 C         -4.31844616    1.34460497    0.86171103
 H         -1.73043299    0.10711000    2.67913508
 H         -0.28654000    2.46279001   -2.19566298
 H         -1.04897201    3.50931692   -0.97914600
 H          2.38024497    0.17488401   -0.32719600
 H          1.49240303   -1.85306895   -0.34635699
 H          1.60285497    2.65768504   -0.62483299
 H         -4.10103798    2.19331098    0.20864700
 H         -4.85799503    1.69062102    1.74283695
 H         -4.92940092    0.61373001    0.32045200
 H         -1.71466696   -1.75271595    1.10420299
 O          5.11227989   -1.48849702   -0.66097897
 O          2.90131402   -1.38609195   -0.94726598
 C          3.82484293   -3.47476506   -0.27807400
 C          3.98338795   -2.00779891   -0.65378201
 H          3.27175593   -3.99904203   -1.06080902
 H          3.23896408   -3.54658604    0.64262700
 H          4.79294586   -3.95116305   -0.12681800
