33
wb97x-d4 ma-def2-tzvp(-f) cpcm(dmso) E: -955.167648764751, G: -954.9438499
 C         -2.40922999    0.52443498    0.17229700
 C         -2.46980309   -0.66056699   -0.81473702
 O         -3.27154303   -1.70782995   -0.30032900
 C         -1.07211101   -1.09487605   -1.16440201
 O         -0.54895598   -1.98599398   -0.28075400
 C         -0.24454699    0.05190100   -1.67548704
 C         -0.23084299    1.16354895   -0.60614502
 C          0.47626799    2.42625189   -1.08079898
 O          1.88126504    2.23344302   -1.20476401
 O         -1.58478606    1.55248499   -0.34200099
 O          1.06742203   -0.28897700   -2.10807300
 O         -1.96091199    0.04922000    1.40804601
 H          0.24973001    0.79157501    0.30438101
 H         -3.39879489    0.98476303    0.27909100
 H         -0.76174200    0.46801901   -2.54725099
 C         -2.07114601    1.01348102    2.45111489
 H         -2.77554798   -2.10330796    0.42835400
 H          0.03937000    2.74937892   -2.03534293
 H          0.32012200    3.22075510   -0.34750700
 H          1.47511101   -0.91022700   -1.46593904
 H          0.45515999   -1.97956800   -0.25766599
 H          1.99260795    1.40082097   -1.69041204
 H         -3.09809494    1.39051199    2.51877189
 H         -1.38912106    1.85244906    2.28545499
 H         -1.80656803    0.50812900    3.37972689
 H         -2.96595597   -0.28403601   -1.71266103
 O          2.01876092   -0.68884301    1.56008101
 O          2.07086396   -1.99979496   -0.25178900
 C          4.08056307   -1.75762200    1.02165103
 C          2.61142802   -1.44617295    0.77293599
 H          4.49924517   -2.38576508    0.23594099
 H          4.17950201   -2.26497507    1.98457694
 H          4.64228296   -0.82261300    1.08363795
