33
wb97x-d4 ma-def2-tzvp(-f) cpcm(dmso) E: -955.165363915684, G: -954.9436577299999
 C         -2.47408891    0.74977303   -0.08348400
 C         -1.97612596   -0.54007202   -0.73010099
 O         -3.03952694   -1.50316799   -0.70318103
 C         -0.72308302   -0.99447900   -0.06700900
 O         -0.06735500   -2.01736593   -0.66525698
 C         -0.04060100   -0.08427600    0.90102100
 C         -0.14498501    1.35547602    0.39907801
 C          0.79119599    1.59802699   -0.78977400
 O          2.16014194    1.44342506   -0.45747900
 O         -1.46602404    1.72872198   -0.05480500
 O         -0.51466799   -0.22821300    2.25355601
 O         -2.97238302    0.45674399    1.20392203
 H          0.11473600    2.03609800    1.21571505
 H         -3.27997494    1.18774104   -0.68151897
 H          1.01749206   -0.33306801    0.95541602
 C         -3.63765192    1.56779504    1.80696297
 H         -2.75895905   -2.24622989   -1.25043201
 H          0.50824499    0.92674202   -1.61078501
 H          0.64118397    2.62500811   -1.13223600
 H         -1.47423398   -0.08568800    2.21261597
 H          0.93116099   -1.85342896   -0.63588297
 H          2.37003994    0.48440000   -0.50408202
 H         -2.93710995    2.38248801    2.00699592
 H         -4.06164980    1.20994604    2.74468899
 H         -4.43981695    1.92713404    1.15367806
 H         -1.76176596   -0.29498199   -1.78173900
 O          2.40549588   -1.26303601   -0.69979000
 O          3.33156395   -3.27706194   -0.94963199
 C          4.77570105   -1.36478996   -0.81639099
 C          3.41327190   -2.04222012   -0.82912803
 H          5.57228899   -2.07527304   -1.03527498
 H          4.94502115   -0.92445803    0.17017600
 H          4.79245996   -0.55171400   -1.54584503
