55
wb97x-d4 ma-def2-tzvp cpcm(acetone) E: -1285.27076754394, G: -1284.8501113700001, DLPNO-CCSD(T1) aug-cc-pvtz cpcm(acetone) E: -1282.383072421666
 C         -2.49320889   -0.38229999    1.08933306
 C         -1.57680702   -1.46747196    0.52523702
 O         -0.69277102   -1.90172696    1.51966906
 C         -0.86745697   -0.95549500   -0.73334301
 O         -0.10184700   -1.87672603   -1.39783502
 C         -1.83911204   -0.32132900   -1.72127295
 C         -2.73629904    0.69424897   -1.02431095
 C         -3.84099507    1.20813406   -1.92544103
 O         -4.60546780    2.22098207   -1.28394496
 O         -3.38255692    0.07494500    0.08923100
 O         -1.14756596    0.33803999   -2.76912999
 O         -1.70644295    0.65061200    1.60255098
 H         -2.13491702    1.54107201   -0.67799097
 H         -3.13442111   -0.79980099    1.87389398
 H         -0.13832900   -0.08309200   -0.36668599
 H         -2.46640110   -1.12949705   -2.12519002
 C         -2.45082998    1.62908101    2.32054996
 H         -0.37405199   -2.81868005    1.30472898
 H         -3.40518904    1.65536404   -2.81912589
 H         -4.47991991    0.36870000   -2.22803402
 H         -0.54994500   -0.30363300   -3.17213988
 H          0.55686700   -2.37729406   -0.81056398
 H         -4.96475887    1.84366906   -0.47222301
 H         -3.11654091    2.18781805    1.65607202
 H         -1.72746503    2.31142211    2.76675200
 H         -3.04364300    1.15551400    3.11113191
 H         -2.23329592   -2.28654099    0.19705500
 C          3.36404204    1.24591196   -0.89452398
 C          2.03052306    0.50974900   -1.20461905
 C          3.11459088    2.24614596    0.23951200
 C          2.77761197    1.46730399    1.51539099
 C          1.62627804    0.47300601    1.19754398
 N          1.09662998    0.83444399   -0.12323600
 H          3.70817494    1.75656295   -1.79564905
 H          1.58477294    0.84651297   -2.13959599
 H          3.99981689    2.86498308    0.39673600
 H          3.64624906    0.90979099    1.87036598
 H          0.81133300    0.53275102    1.91510606
 H          4.12940407    0.52504301   -0.59960502
 H          2.15908599   -0.57148701   -1.23583806
 C          1.91448200    3.12360406   -0.13127600
 H          2.47024202    2.15513396    2.30618906
 H          1.97576594   -0.55702400    1.13940597
 C          0.64434499    2.22879601   -0.18288200
 H          2.07769799    3.59591889   -1.10241306
 H          1.76824403    3.91268802    0.60845798
 H          0.08837800    2.36806798   -1.10897195
 H         -0.01488200    2.39894295    0.66583598
 O          1.72874999   -3.25011897   -0.24312200
 O          0.27576500   -4.31994915    1.06843197
 C          2.38412189   -5.35880518    0.65947503
 C          1.38349700   -4.23135519    0.47620699
 H          3.07098293   -5.41510105   -0.18518600
 H          1.87067902   -6.31115389    0.79582101
 H          2.96678495   -5.15637398    1.56347203
