48
wb97x-d4 ma-def2-tzvp cpcm(acetone) E: -1056.448623279473, G: -1056.0722721700001, DLPNO-CCSD(T1) aug-cc-pvtz cpcm(acetone) E: -1054.038991683474
 C         -2.67797589   -0.07550500    1.01367605
 C         -2.04032207    1.28795397    0.72817302
 O         -2.88040090    2.34733200    1.13956797
 C         -1.68004405    1.41377401   -0.75119603
 O         -0.91404200    2.57017803   -1.03107297
 C         -0.87866998    0.20702100   -1.21367598
 C         -1.63043106   -1.07581997   -0.88531202
 C         -0.92083597   -2.36107707   -1.26794600
 O         -1.77681303   -3.48141694   -1.10772896
 O         -1.86392200   -1.12240398    0.51986003
 O         -0.49957901    0.26910600   -2.53279090
 O         -3.94786096   -0.06730600    0.43519300
 H         -2.58687806   -1.03845501   -1.42284095
 H         -2.74614906   -0.25284800    2.09228992
 H         -2.60525703    1.42277396   -1.34427404
 H          0.16364500    0.20644300   -0.54706800
 C         -4.76486921   -1.17108202    0.82175398
 H         -3.76781797    2.16423392    0.80228299
 H         -0.63866699   -2.32121897   -2.32052302
 H         -0.01500400   -2.48307705   -0.66523200
 H         -0.33612600    1.19744205   -2.76163101
 H         -1.49071205    3.34109902   -0.97951800
 H         -2.01803803   -3.54062605   -0.17563701
 H         -5.75383091   -0.99388403    0.40121800
 H         -4.83265877   -1.23005497    1.91334498
 H         -4.36258411   -2.10937810    0.43010899
 H         -1.12771297    1.36593902    1.32327497
 C          3.84015799   -0.28294200   -0.70533901
 C          2.34225607   -0.46999899   -1.06305802
 C          3.93221903    0.27880600    0.71711200
 C          3.08809996   -0.59719902    1.64893496
 C          1.59470105   -0.43126100    1.26632094
 N          1.55051899    0.24131300   -0.04564600
 H          4.31373596    0.40085199   -1.41289198
 H          2.09510994   -0.05264400   -2.03877592
 H          4.97099304    0.29367399    1.05066204
 H          3.38416195   -1.64411998    1.55281699
 H          1.05520999    0.19790100    1.97365201
 H          4.34586096   -1.24737000   -0.77708298
 H          2.04997993   -1.51891899   -1.03815305
 C          3.35221004    1.69668400    0.71898800
 H          3.22500300   -0.30105501    2.69038105
 H          1.08443296   -1.38952899    1.18290198
 C          1.94898903    1.65683496    0.05946500
 H          3.99256492    2.37965012    0.15830800
 H          3.27304506    2.07027888    1.74220395
 H          1.95354700    2.07150888   -0.94769198
 H          1.20075905    2.17839193    0.65259600
