55
wb97x-d4 ma-def2-tzvp cpcm(acetone) E: -1285.268981414652, G: -1284.84825221, DLPNO-CCSD(T1) aug-cc-pvtz cpcm(acetone) E: -1282.379841168592
 C         -2.39026594   -2.13089108   -0.23101400
 C         -0.94476700   -1.64980698   -0.02646500
 O         -0.43481001   -1.99197495    1.23084998
 C         -0.80819798   -0.16467200   -0.37601000
 C         -1.37972403    0.11823900   -1.76085901
 C         -2.82096601   -0.40441900   -1.83382201
 C         -3.43754292   -0.25785801   -3.21276903
 O         -2.70597696   -0.95050502   -4.21727419
 O         -2.83847904   -1.80072999   -1.53031504
 O         -1.31621802    1.50105703   -2.05434489
 O         -3.20396209   -1.59444296    0.76434100
 H         -3.43900299    0.14740500   -1.11553597
 H         -2.41864705   -3.22685289   -0.19427000
 H         -0.78225499   -0.40413600   -2.51176405
 C         -4.50594282   -2.16813207    0.80074602
 H         -0.86557502   -1.48576295    1.96139300
 H         -4.47267818   -0.61655402   -3.17312694
 H         -3.44558811    0.79563898   -3.49423599
 H         -1.54183304    1.96808696   -1.23742199
 H         -2.68937111   -1.88399804   -3.97575092
 H         -5.01152086   -1.75231099    1.67189801
 H         -4.44362497   -3.25828004    0.89907098
 H         -5.07255602   -1.92041397   -0.10184500
 H         -0.35056400   -2.19446802   -0.76771700
 O         -1.32454300    0.74232501    0.52120298
 H          0.34092900    0.02021400   -0.44751799
 H         -0.82747102    0.74118102    1.40805602
 C          3.78426909    1.02735603   -1.80181098
 C          2.39345908    0.32823399   -1.76396596
 C          4.17634678    1.40548694   -0.36857799
 C          4.05414486    0.16217799    0.52058101
 C          2.55163193   -0.23545600    0.60500300
 N          1.85691798    0.54565102   -0.42030099
 H          3.73436999    1.91992605   -2.42876911
 H          1.70048797    0.75693202   -2.48747301
 H          5.19929695    1.78533602   -0.34686100
 H          4.63497591   -0.66175598    0.10083600
 H          2.10711408    0.01558900    1.56723905
 H          4.51540709    0.34475699   -2.23806000
 H          2.46868896   -0.74687499   -1.92403197
 C          3.20456290    2.47453403    0.14417100
 H          4.42678690    0.36418101    1.52621400
 H          2.39448500   -1.29307604    0.39809299
 C          1.75050199    1.96224105   -0.07462900
 H          3.33628106    3.41303706   -0.39685899
 H          3.37672997    2.66523194    1.20536005
 H          1.25618005    2.47018790   -0.90153998
 H          1.14649403    2.05257201    0.82695001
 O         -0.05732800    0.98534501    2.73351097
 O         -1.12581396   -0.79988998    3.53511095
 C          0.06241900    0.59467101    5.07633018
 C         -0.42181000    0.22828300    3.68368196
 H         -0.04456700    1.66760504    5.24518585
 H          1.12673903    0.35187301    5.14739609
 H         -0.47761700    0.03790300    5.84170914
