48
wb97x-d4 ma-def2-tzvp cpcm(acetone) E: -1056.448421643652, G: -1056.07241488, DLPNO-CCSD(T1) aug-cc-pvtz cpcm(acetone) E: -1054.038634788702
 C          1.41228902   -1.61220396    0.12991700
 C          0.78363001   -0.97309601   -1.10143495
 C          1.68179595    0.06926100   -1.73772597
 O          0.94941002    0.65864003   -2.79721498
 C          2.14226389    1.07864499   -0.69751298
 C          2.73748708    0.34324601    0.50903797
 C          3.10248995    1.26602197    1.65731895
 O          1.99183297    2.01001906    2.14088011
 O          1.78827202   -0.59670597    1.03057396
 O          3.11824298    1.90113294   -1.32069695
 O          0.28710100   -1.90700400   -1.97569001
 O          2.48586893   -2.39135408   -0.29420400
 H          3.64526391   -0.18074200    0.18719800
 H          0.67854500   -2.22256899    0.66986001
 H         -0.17711300   -0.37043601   -0.64516699
 H          2.56469703   -0.45144001   -2.13327503
 H          1.28522801    1.67911100   -0.37650800
 C          3.05516005   -3.18268490    0.74836600
 H          0.14233901   -1.47752404   -2.83297205
 H          3.54841590    0.66764301    2.45935607
 H          3.84659696    1.98870802    1.31779003
 H          3.08836699    2.77959895   -0.92752898
 H          1.56238997    1.15688300   -3.34996891
 H          1.36988604    1.38971806    2.53777504
 H          3.53416991   -2.55208492    1.50231504
 H          3.80130911   -3.82461500    0.28205499
 H          2.28389192   -3.79812908    1.22424400
 C         -2.82527304    0.87263298    1.69173205
 C         -1.38596499    0.63120103    1.16330802
 C         -3.80482006    0.72770101    0.52212799
 C         -3.79911399   -0.73102099    0.05058800
 C         -2.32841110   -1.16105402   -0.19729801
 N         -1.51019597    0.06020200   -0.18738499
 H         -2.88302994    1.87252700    2.12501907
 H         -0.81935400    1.55758202    1.07633603
 H         -4.80937719    1.01904798    0.83289802
 H         -4.24035978   -1.38605797    0.80354601
 H         -2.19975305   -1.65078199   -1.16202199
 H         -3.06252098    0.14939900    2.47476792
 H         -0.83054298   -0.07050500    1.78385198
 C         -3.32784891    1.61641800   -0.63171798
 H         -4.37883997   -0.83261800   -0.86912400
 H         -1.95271897   -1.81476402    0.59022701
 C         -1.98315501    1.05348504   -1.16494501
 H         -3.19144893    2.64330792   -0.28597200
 H         -4.05891705    1.62615395   -1.44190001
 H         -1.22088802    1.82521796   -1.25959206
 H         -2.09729695    0.54388201   -2.12122798
