55
wb97x-d4 ma-def2-tzvp cpcm(acetone) E: -1285.269212499131, G: -1284.84867749, DLPNO-CCSD(T1) aug-cc-pvtz cpcm(acetone) E: -1282.380670739335
 C         -1.19082296   -1.48354304    1.34045804
 C         -1.13409698   -0.15453900    0.58966798
 C         -1.95738995   -0.19391400   -0.70177102
 O         -1.75253105    0.92727900   -1.52406800
 C         -1.58083403   -1.42192304   -1.52051497
 C         -1.66381598   -2.68280911   -0.67111498
 C         -1.16667700   -3.91367507   -1.40255797
 O         -1.31270695   -5.08827114   -0.61465698
 O         -0.82169801   -2.53660989    0.47742701
 O         -2.45289707   -1.56514597   -2.63072610
 O         -1.38374901    0.89007300    1.43253696
 O         -2.47518706   -1.64175999    1.86319304
 H         -2.70050502   -2.84203601   -0.35275701
 H         -0.44589999   -1.49850404    2.14538789
 H         -0.00728900   -0.07585500    0.23131500
 H         -3.01411891   -0.27570200   -0.40842700
 H         -0.54565102   -1.29639006   -1.86944306
 C         -2.58932090   -2.75808907    2.74217200
 H         -1.25692296    1.79266298    0.98516500
 H         -1.75611997   -4.06176996   -2.30769801
 H         -0.11712800   -3.76344109   -1.68719697
 H         -2.51022100   -0.69837898   -3.05290198
 H         -2.20766091    1.72719204   -1.15329897
 H         -0.83174300   -4.94725180    0.20939700
 H         -2.46672010   -3.70078802    2.20115995
 H         -3.58709192   -2.71559405    3.17753196
 H         -1.83818495   -2.69733095    3.53794289
 C          3.73033905   -0.47903401   -0.46176800
 C          2.26165104   -0.91806102   -0.19519199
 C          3.88326001    0.99162000   -0.05656400
 C          3.37453103    1.16637897    1.37908006
 C          1.84641802    0.87538600    1.39972901
 N          1.50343895    0.30174500    0.09719800
 H          3.96953702   -0.60501099   -1.51974297
 H          1.81446397   -1.40294802   -1.06192303
 H          4.93024683    1.29261303   -0.12334100
 H          3.89297295    0.47896701    2.05066299
 H          1.25819898    1.78247094    1.52901602
 H          4.40428877   -1.11355197    0.11626200
 H          2.17918992   -1.57733095    0.66830999
 C          3.02476001    1.85048795   -0.99111497
 H          3.55078602    2.18392992    1.73152900
 H          1.57807100    0.15680499    2.17384410
 C          1.57453001    1.28972399   -0.98481101
 H          3.41579700    1.82420695   -2.00973010
 H          3.02362299    2.88949800   -0.65488398
 H          1.32500601    0.77954900   -1.91418004
 H          0.83325797    2.06205511   -0.78633201
 H         -1.33183205    5.80525589    0.62935799
 H         -2.76817107    5.77139187   -0.44000599
 O         -0.94929600    3.27290392    0.56925499
 C         -1.77999496    5.34994078   -0.25429499
 C         -1.85273397    3.83998895   -0.11115400
 O         -2.78151298    3.22787309   -0.70066500
 H         -1.14384305    5.57926798   -1.11476302
