48
wb97x-d4 ma-def2-tzvp cpcm(acetone) E: -1056.445960270627, G: -1056.0707311400001, DLPNO-CCSD(T1) aug-cc-pvtz cpcm(acetone) E: -1054.034619205864
 H          1.54085100    3.42365193   -1.45843005
 C          1.17937505    2.39785194   -1.48018801
 H          3.70904493   -1.97004604   -2.51628089
 H          0.10046500    2.38775802   -1.65309405
 H          1.68454099    1.83967900   -2.26946092
 O          1.27790296   -0.34093001   -0.95485902
 H          2.26110911   -1.20160103   -3.19648790
 C          1.05005598    0.57153797    0.05511500
 C          2.67685199   -1.68753099   -2.30672407
 O          1.48087800    1.84770203   -0.18997000
 O          1.34324098    1.05766594    2.42593503
 C          2.66406298   -0.69208300   -1.16142595
 H          1.03874695   -2.65737200   -1.89159000
 C          1.57757699    0.10820800    1.41144705
 O          1.96984696   -2.88086104   -2.00388908
 H          3.22839308    0.19815800   -1.46271300
 H          1.71337605    1.90478396    2.14488602
 H          2.72362804   -2.16890001    0.39924699
 H          1.04067099   -0.79857397    1.69848895
 C          3.24796510   -1.24206102    0.13512599
 C          3.06111002   -0.24028800    1.26470995
 H          5.01260090   -1.78116798    0.73631400
 H          3.62572694    0.67300999    1.03428304
 O          4.62200308   -1.49899304   -0.09964900
 O          3.56180811   -0.84204102    2.44588804
 H          3.57142305   -0.18034101    3.14718699
 H         -4.31461620    2.13050699    0.18494301
 H         -2.04303694    2.31904411   -0.31141201
 C         -3.74042606    1.40423596    0.76247603
 C         -2.22535896    1.64906096    0.52811700
 H         -3.98177290    1.54330504    1.81814694
 H         -1.72777295    2.04021907    1.41517997
 H         -4.00925207    0.51628798   -1.77025294
 H         -1.67305398    0.54526001   -1.87776804
 C         -3.58613706   -0.24178500   -1.10806799
 C         -2.03611708   -0.14849401   -1.12063301
 C         -4.07877588   -0.02613100    0.32742500
 N         -1.61956501    0.34903201    0.19953400
 H         -5.15618801   -0.18967700    0.38284200
 H         -0.16390800    0.56946403    0.13893200
 H         -3.89044309   -1.22250700   -1.47730803
 H         -1.56500697   -1.11968303   -1.26872897
 C         -1.83851397   -0.64880800    1.25802898
 C         -3.34951091   -1.00664198    1.25194895
 H         -1.52458704   -0.20281100    2.20152497
 H         -3.73809099   -0.94102198    2.26947308
 H         -1.21312594   -1.51482904    1.04079998
 H         -3.48799205   -2.03124595    0.90093601
