48
wb97x-d4 ma-def2-tzvp cpcm(acetone) E: -1056.449199815924, G: -1056.0736846000002, DLPNO-CCSD(T1) aug-cc-pvtz cpcm(acetone) E: -1054.037974839305
 C         -2.79684401   -0.03735300   -1.29247606
 C         -1.26200497   -0.02527300   -1.26471996
 O         -0.71035099   -0.69826800   -2.37186909
 C         -0.72631299   -0.55825001    0.05835800
 C         -1.41807699    0.06233300    1.27245402
 C         -2.93809009   -0.01191000    1.09552705
 C         -3.69045901    0.72953302    2.18662405
 O         -3.34640598    2.10683298    2.25170803
 O         -3.30712104    0.59682697   -0.14110699
 O         -1.07697904   -0.67681003    2.43541503
 O         -3.22761297   -1.35556996   -1.42222905
 H         -3.24767709   -1.06328797    1.10956001
 H         -3.15552211    0.56717902   -2.13336301
 H         -1.12100697    1.11039698    1.36375904
 C         -4.61903715   -1.47196198   -1.71182704
 H         -1.05322802   -1.60144401   -2.36522889
 H         -4.76516819    0.60452199    2.01323295
 H         -3.44097495    0.29306400    3.15426111
 H         -0.33857799   -0.24886200    2.88249493
 H         -3.61434793    2.51959395    1.42247105
 H         -4.87406015   -0.88829899   -2.60338092
 H         -5.22432184   -1.12850201   -0.86819601
 H         -4.81626987   -2.52724791   -1.89616501
 H         -0.96382701    1.02321100   -1.34399199
 O         -0.71626502   -1.93933499    0.09209700
 H          0.40100199   -0.19945900    0.09058500
 H         -0.65761602   -2.20344305    1.02436197
 C          3.59770989    1.21593201   -1.39970803
 C          2.07104397    1.03960896   -1.16009402
 C          4.35299683    0.54274201   -0.24855800
 C          4.07964182   -0.96493697   -0.28784600
 C          2.53960609   -1.19062603   -0.29024199
 N          1.91941094    0.11117000   -0.03420800
 H          3.83369303    2.28028202   -1.44700897
 H          1.58797300    1.97688198   -0.88419402
 H          5.42387104    0.73065501   -0.34281999
 H          4.50852680   -1.41280901   -1.18565702
 H          2.22473192   -1.88065195    0.49245301
 H          3.87804508    0.76330101   -2.35278511
 H          1.56761003    0.61068398   -2.02532601
 C          3.83505702    1.10596597    1.07947397
 H          4.52493000   -1.45261002    0.58152503
 H          2.17740011   -1.54848099   -1.25327802
 C          2.34297395    0.69706303    1.24199796
 H          3.92490292    2.19399905    1.08973300
 H          4.40892601    0.70920497    1.91851997
 H          1.70257497    1.55302799    1.45430696
 H          2.20551991   -0.05862500    2.01536202
