55
wb97x-d4 ma-def2-tzvp cpcm(acetone) E: -1285.268839962846, G: -1284.8481283800002, DLPNO-CCSD(T1) aug-cc-pvtz cpcm(acetone) E: -1282.381220312839
 C          1.79274094    2.67783093    1.23390496
 C          1.60625196    1.26718199    1.77842104
 O          2.46556997    1.06377304    2.88320088
 C          1.85007000    0.22607100    0.69188899
 O          1.64472198   -1.03583598    1.26888502
 C          0.94222802    0.52184898   -0.51286203
 C          1.10237002    1.98230398   -0.94304901
 C          0.17491600    2.44370794   -2.05335498
 O         -1.17774999    2.54520798   -1.63228405
 O          0.89964902    2.87007499    0.15205801
 O          1.11684203   -0.29053000   -1.59549499
 O          3.12339497    2.85632610    0.85799599
 H          2.13133597    2.07603312   -1.31612599
 H          1.50160003    3.42789006    1.97829902
 H          2.88377404    0.31986901    0.32991800
 H         -0.18603900    0.34236199   -0.11092600
 C          3.43124104    4.19508314    0.48256701
 H          2.45576310    0.11421700    3.06253290
 H          0.53364497    3.41083694   -2.42295098
 H          0.20589800    1.72563004   -2.87315512
 H          1.16098797   -1.27793801   -1.36934102
 H          2.14993405   -1.72719502    0.76076603
 H         -1.21051002    3.18916702   -0.91495699
 H          4.50882101    4.24032879    0.32819599
 H          3.14474893    4.89250994    1.27804101
 H          2.91893911    4.47395277   -0.44291499
 H          0.55862099    1.18920398    2.09869099
 C         -3.54356599   -1.06252301   -1.11073101
 C         -2.07145596   -0.58212602   -1.24347997
 C         -3.82830811   -1.35765803    0.36520699
 C         -3.76497412   -0.04533400    1.15500295
 C         -2.42846990    0.66912103    0.81747103
 N         -1.57982600   -0.29948699    0.11043000
 H         -3.68596506   -1.95765901   -1.71874905
 H         -1.43001199   -1.35133505   -1.67144501
 H         -4.81201410   -1.81760597    0.47551599
 H         -4.59780979    0.60869700    0.89019001
 H         -1.90184903    0.99732500    1.71315897
 H         -4.22341919   -0.29131100   -1.47971404
 H         -1.99006903    0.32973400   -1.83039701
 C         -2.73817611   -2.29648995    0.89030200
 H         -3.82290912   -0.24908100    2.22661209
 H         -2.57785392    1.51850295    0.15520000
 C         -1.38579094   -1.53454900    0.88545901
 H         -2.66959906   -3.18494892    0.25844499
 H         -2.96233702   -2.62253094    1.90780103
 H         -0.59114403   -2.10841393    0.41387799
 H         -1.06838202   -1.24938095    1.88669896
 O          2.89771008   -2.96333694   -0.00926100
 O          1.16149294   -2.84970403   -1.40603495
 C          2.39527297   -4.88127899   -1.34975696
 C          2.13615108   -3.46026492   -0.88001001
 H          3.15527201   -5.36928511   -0.74044299
 H          2.73116207   -4.85328293   -2.38990307
 H          1.46710503   -5.45571280   -1.31939304
