53
wb97x-d4 ma-def2-tzvp cpcm(acetone) E: -1515.709869323972, G: -1515.29916886, DLPNO-CCSD(T1) aug-cc-pvtz cpcm(acetone) E: -1512.630684444072
 C         -4.63164091    1.47786701   -0.33410400
 C         -3.52176690    0.46843499   -0.11505900
 H         -4.20028591    2.47212100   -0.45154101
 O         -5.51650476    1.53486705    0.77624899
 H         -5.17509317    1.22010696   -1.25225794
 O         -4.15967083   -0.80821103   -0.02021500
 C         -2.50526690    0.47952199   -1.26151097
 H         -3.00850892    0.69424802    0.82696402
 C         -1.57494700   -0.70891500   -1.13821995
 O         -1.80579603    1.70898104   -1.31615901
 H         -3.04156899    0.38931799   -2.21493506
 C         -3.29100704   -1.87295902    0.29755399
 H         -5.87612486    0.64959401    0.90824002
 O         -0.69419098   -0.79385298   -2.18447590
 O         -2.61870909   -1.68659198    1.50361097
 H         -1.23640704    1.76117694   -0.53249598
 H         -0.27307299   -1.66570401   -2.16378307
 C         -3.46453905   -1.74080503    2.64930105
 C         -2.24357796   -2.02779603   -0.80246502
 H         -3.92976189   -2.76201606    0.34606600
 H         -2.77046800   -2.36183906   -1.70396101
 O         -1.28624201   -3.02780700   -0.51354700
 H         -0.91965902   -2.83819008    0.36121801
 C          1.63924205    0.44163701    0.47894299
 C          2.18519306   -0.93918103    0.09346300
 C          3.62019897   -0.80247402   -0.43241301
 H          2.16282892   -1.59511602    0.96971101
 H          1.54736996   -1.39042199   -0.67129201
 C          3.63267493    0.12296500   -1.65543401
 C          3.10603094    1.50683904   -1.25777102
 H          4.65240622    0.20915300   -2.04678011
 H          3.00931096   -0.29935801   -2.45175099
 C          1.66795802    1.37322795   -0.73950100
 H          1.27660096    2.35519695   -0.45266399
 H          1.02208805    0.97309101   -1.52455997
 C          2.53078604    1.03692698    1.58185101
 S         -0.03185900    0.30824801    1.19328701
 C          4.50582409   -0.20798500    0.66845298
 H          3.99319100   -1.79275298   -0.71334302
 C          3.97011399    1.17213798    1.06562805
 H          4.51621485   -0.87184399    1.54031503
 H          5.53788996   -0.11778200    0.31170699
 H          4.59182119    1.59479702    1.86157703
 C          3.99282694    2.09732890   -0.15636399
 H          2.14412689    2.01789808    1.87819505
 H          2.50673389    0.38920599    2.46469402
 H          3.63288093    3.09468389    0.12024000
 H          3.11012411    2.16790009   -2.13054991
 H          5.02026606    2.20814610   -0.52061200
 H         -0.79290003   -0.34711799    0.01231000
 H         -4.16559887   -0.90139002    2.65851092
 H         -2.81558895   -1.68286502    3.52238703
 H         -4.02393484   -2.68264699    2.66729212
