27
wb97x-d4 ma-def2-tzvp(-f) cpcm(dmso) E: -727.031301853489, G: -726.83970835
 C         -1.15416896   -0.15951499    0.10740700
 C         -0.98306602    1.29817903   -0.32460999
 O         -0.28469801   -1.00862002   -0.65667599
 C         -2.55950999   -0.68647498   -0.11729300
 H         -0.92479402   -0.25480399    1.17599595
 C          1.08570695   -0.69771200   -0.54646498
 C          1.34954298    0.73306400   -1.02074599
 H          1.60082304   -1.42481399   -1.18271697
 O          1.55026102   -0.80032599    0.77705503
 C          0.48291299    1.72673500   -0.25061300
 H          1.05860603    0.77609801   -2.07306409
 O          2.72633910    1.05773306   -0.96934497
 O          0.89912403    1.87709200    1.10862803
 H          0.58627701    2.71756291   -0.69949597
 O         -1.78980303    2.15348196    0.47111401
 H         -1.32584298    1.40221703   -1.35670900
 H         -2.61280298   -1.71733105    0.25095800
 O         -2.95894003   -0.62115002   -1.48257303
 H         -3.26459193   -0.07724700    0.44943401
 H         -2.34347010   -1.16224205   -1.99203598
 H         -1.31202805    2.29131508    1.30131400
 H          1.05994701    0.99250001    1.47263706
 C          1.52902496   -2.13142395    1.29426098
 H          0.50276297   -2.49130893    1.40444398
 H          2.01258802   -2.09760809    2.26975608
 H          2.08358097   -2.80214310    0.62978899
 H          2.98621702    1.10674095   -0.04045000
