27
wb97x-d4 ma-def2-tzvp(-f) cpcm(dmso) E: -727.031313838325, G: -726.83949762
 C         -1.14964402   -0.15088999    0.13152000
 C         -0.97852802    1.30470800   -0.30791801
 O         -0.30508000   -1.00688398   -0.65246999
 C         -2.56467509   -0.66750997   -0.05605600
 H         -0.89433199   -0.24568200    1.19414401
 C          1.06980598   -0.70627600   -0.57119900
 C          1.33474600    0.72143000   -1.05304205
 H          1.56705201   -1.43784297   -1.21638703
 O          1.56149900   -0.80853200    0.74291599
 C          0.49229100    1.72282100   -0.26572999
 H          1.02185702    0.76634997   -2.09879994
 O          2.71543694    1.03432095   -1.03027594
 O          0.93843102    1.87184799    1.08408201
 H          0.59381098    2.71174693   -0.71898103
 O         -1.76237500    2.16761088    0.50314301
 H         -1.34189701    1.40782797   -1.33285105
 H         -2.61525893   -1.69864404    0.31147799
 O         -3.00038505   -0.59696901   -1.41015995
 H         -3.24946094   -0.05448200    0.53064299
 H         -2.40568900   -1.14632905   -1.93514705
 H         -1.26150501    2.30798006    1.31929302
 H          1.09814894    0.98645800    1.44641495
 C          1.53275001   -2.13727808    1.26679206
 H          2.06179309   -2.81872797    0.59269202
 H          0.50424999   -2.48115206    1.40236700
 H          2.03906703   -2.10672402    2.23061705
 H          2.99788904    1.06081998   -0.10708600
