27
wb97x-d4 ma-def2-tzvp(-f) cpcm(dmso) E: -727.02713551374, G: -726.83528631
 C         -1.02387297   -0.17833900   -0.07843800
 C         -0.83090103    1.25867605   -0.56098098
 O         -0.11803000   -1.02885306   -0.78224599
 C         -2.41383195   -0.72320700   -0.38482499
 H         -0.83784699   -0.23516500    1.00000703
 C          1.24769402   -0.75107598   -0.53658801
 C          1.58006096    0.69745302   -0.91497600
 H          1.79082203   -1.43836999   -1.19541800
 O          1.60998905   -0.98049402    0.79288203
 C          0.60585803    1.71391702   -0.32672000
 H          1.49049795    0.75652897   -2.00250411
 O          2.92522502    1.01262903   -0.60508299
 O          0.87167603    1.86987102    1.06206799
 H          0.75976801    2.67331910   -0.83726001
 O         -1.67217505    2.17759490    0.12787300
 H         -1.03397799    1.28661597   -1.64019799
 H         -2.62025499   -0.62751299   -1.45357001
 O         -3.43008089    0.02070200    0.29525799
 H         -2.45933390   -1.78153002   -0.11314400
 H         -3.44630909   -0.25930700    1.21854603
 H         -2.52645206    1.73630404    0.26331800
 H          0.12285700    2.35819101    1.42905998
 C          1.59471595   -2.36175203    1.14585304
 H          0.57678300   -2.76158595    1.12727702
 H          1.99506998   -2.43490601    2.15666509
 H          2.22356296   -2.94015789    0.45933899
 H          3.01848793    0.94045597    0.35380501
