27
wb97x-d4 ma-def2-tzvp(-f) cpcm(dmso) E: -727.024364908789, G: -726.83291543
 C         -1.34959602    0.00421200    0.31995499
 C         -1.01780701    1.43449199   -0.10363800
 O         -0.21547300   -0.64270401    0.90411502
 C         -1.96430802   -0.83735901   -0.80422801
 H         -2.08116698    0.06269600    1.13040996
 C          0.93905503   -0.67581803    0.07498200
 C          1.39297402    0.73312002   -0.29581001
 H          0.72995001   -1.25370300   -0.83725399
 O          1.96535599   -1.26986396    0.79819900
 C          0.24015000    1.46590495   -0.97584999
 H          2.23880005    0.65508300   -0.98776299
 O          1.77617002    1.46508300    0.86706901
 O          0.59306401    2.79209709   -1.33283997
 H          0.02995100    0.94371003   -1.91262805
 O         -0.87088698    2.29060197    1.02848697
 H         -1.85885501    1.83103704   -0.67552102
 H         -1.36267996   -0.80996698   -1.71412802
 O         -3.24875593   -0.34392601   -1.17068100
 H         -2.02014089   -1.87682700   -0.46330300
 H         -3.85401607   -0.49725300   -0.43513301
 H         -0.04586700    2.03522301    1.47016501
 H          0.56226099    3.32384205   -0.52658498
 C          1.78273594   -2.66913795    1.02190602
 H          2.69279790   -3.02989602    1.49987996
 H          1.63610697   -3.18946195    0.06928900
 H          0.92684799   -2.85293007    1.67555201
 H          2.38333201    0.91174299    1.37535000
