27
wb97x-d4 ma-def2-tzvp(-f) cpcm(dmso) E: -727.025208275307, G: -726.83288224
 C         -1.10281503   -0.00507900    0.08176500
 C         -0.95093602    1.47884405   -0.29428500
 O         -0.22341099   -0.80929202   -0.70838398
 C         -2.50505590   -0.51989198   -0.16394500
 H         -0.85525501   -0.13026799    1.14126801
 C          1.14413905   -0.60232598   -0.41652501
 C          1.47296298    0.88212401   -0.16204900
 H          1.67444003   -0.95279598   -1.30843604
 O          1.55935001   -1.32338595    0.70906299
 C          0.44169199    1.72089899   -0.90481901
 H          2.47667289    1.08738196   -0.54733402
 O          1.41193402    1.22589004    1.22206998
 O          0.76301301    3.10140395   -0.90499502
 H          0.43242300    1.39348197   -1.94695103
 O         -1.16493905    2.31145406    0.84328300
 H         -1.71326900    1.77389801   -1.01949096
 H         -3.21666503    0.10394900    0.38099501
 O         -2.67190504   -1.85341895    0.30524001
 H         -2.73106408   -0.45237300   -1.23565495
 H         -2.01752305   -2.40031600   -0.14675000
 H         -0.50309598    2.04721093    1.50091398
 H          0.35858801    3.48177505   -0.11230500
 C          1.53815699   -2.73848391    0.51923800
 H          0.51618600   -3.09572005    0.37073600
 H          1.95427406   -3.18378305    1.42206204
 H          2.15189004   -3.01517105   -0.34492999
 H          1.76021397    0.47399300    1.72021902
