27
wb97x-d4 ma-def2-tzvp(-f) cpcm(dmso) E: -727.024664694914, G: -726.83236313
 C         -1.10368001   -0.08055800    0.19756199
 C         -0.97878402    1.37410998   -0.29464999
 O         -0.20985100   -0.93268698   -0.52298898
 C         -2.49594903   -0.65231299    0.00587000
 H         -0.86380702   -0.11146700    1.26643300
 C          1.15867198   -0.66298199   -0.29754400
 C          1.45800996    0.84344500   -0.18416201
 H          1.67102301   -1.07874501   -1.17167795
 O          1.63016200   -1.26907599    0.87300801
 C          0.38721699    1.59058702   -0.96584499
 H          2.44630504    1.03455400   -0.61398798
 O          1.42634404    1.30232406    1.16722202
 O          0.67573798    2.97246790   -1.09993804
 H          0.35494500    1.17023003   -1.97378194
 O         -1.16976798    2.28729200    0.78528303
 H         -1.76719701    1.60220206   -1.01315904
 H         -2.53934407   -1.65285599    0.45029300
 O         -2.87704301   -0.69696802   -1.36551201
 H         -3.21786904   -0.01194100    0.51731598
 H         -2.24776602   -1.26902199   -1.82163799
 H         -0.47667700    2.08847690    1.43363404
 H          0.28912401    3.41327906   -0.33006999
 C          1.65000498   -2.69515204    0.81324297
 H          2.10857201   -3.04262900    1.73826504
 H          2.24548507   -3.03186202   -0.04228700
 H          0.63644600   -3.09519291    0.73329598
 H          1.80969000    0.60448301    1.71581697
