27
wb97x-d4 ma-def2-tzvp(-f) cpcm(dmso) E: -727.029957558168, G: -726.83790859
 C         -1.12848198   -0.11846700   -0.11105400
 C         -0.93128097    1.37920499   -0.36875200
 O         -0.21797200   -0.88288498   -0.91156799
 C         -2.52895999   -0.56856298   -0.48089200
 H         -0.95366400   -0.33024499    0.95178300
 C          1.14277899   -0.60350400   -0.67883801
 C          1.44177902    0.86385900   -0.99245203
 H          1.69548702   -1.27000904   -1.34910500
 O          1.51916802   -0.84414399    0.65606803
 C          0.53334701    1.78220999   -0.17865799
 H          1.21455300    1.01208103   -2.05065489
 O          2.81294394    1.17424500   -0.82716602
 O          0.87386501    1.79066396    1.20937598
 H          0.66369897    2.81240296   -0.51844698
 O         -1.76351905    2.15473700    0.48071000
 H         -1.22476399    1.60258305   -1.39925694
 H         -3.25110006    0.11405600   -0.02391500
 O         -2.79440808   -1.91732895   -0.10383000
 H         -2.64389491   -0.52312499   -1.56679201
 H         -2.85039401   -1.95507598    0.85820699
 H         -1.30655003    2.21488094    1.33188999
 H          1.00959003    0.87136400    1.48887396
 C          1.42916298   -2.21781492    1.03702700
 H          2.01272297   -2.83779192    0.34854800
 H          0.38923299   -2.55455589    1.04007101
 H          1.84299803   -2.29380298    2.04168892
 H          3.01366305    1.14502501    0.11714000
