27
wb97x-d4 ma-def2-tzvp(-f) cpcm(dmso) E: -727.030294117571, G: -726.83759644
 C         -1.08159804   -0.30432200   -0.13680100
 C         -0.93882900    1.14785194   -0.60036600
 O         -0.08471400   -1.10994804   -0.77356899
 C         -2.42476392   -0.91102803   -0.52540803
 H         -0.97381002   -0.36039400    0.95305997
 C          1.24235499   -0.71757603   -0.49502999
 C          1.48933601    0.71807802   -0.96508700
 H          1.87320495   -1.42427802   -1.04359698
 O          1.53683996   -0.77104700    0.87838501
 C          0.47239700    1.67418694   -0.34358901
 H          1.34229803    0.72771001   -2.04745007
 O          2.82639408    1.12148297   -0.73638600
 O          0.68900502    1.87612200    1.05347097
 H          0.57550299    2.65980506   -0.80365598
 O         -1.90552998    1.98082197    0.03537900
 H         -1.14283395    1.19278502   -1.67418504
 H         -2.58410096   -0.77920300   -1.60353601
 O         -3.49971008   -0.35078400    0.22009701
 H         -2.40529609   -1.98133802   -0.30966401
 H         -3.37291098    0.60981399    0.21652900
 H         -1.56187403    2.18428302    0.91799301
 H          0.85380000    1.01112795    1.46024096
 C          1.52430797   -2.09430599    1.41662800
 H          1.86884606   -2.01830411    2.44702005
 H          2.20180202   -2.73794293    0.84595400
 H          0.51551199   -2.51443291    1.39518297
 H          2.96436691    1.17083502    0.21838500
