27
wb97x-d4 ma-def2-tzvp(-f) cpcm(dmso) E: -727.027231708401, G: -726.83655919
 C         -1.10791302   -0.07671700    0.09518000
 C         -0.90984797    1.39876401   -0.22249000
 O         -0.31003201   -0.85209697   -0.80771703
 C         -2.53623009   -0.54006898   -0.10634100
 H         -0.80119097   -0.27969700    1.12625098
 C          1.08409297   -0.65997201   -0.67055500
 C          1.43906701    0.81466502   -0.89653999
 H          1.52646005   -1.27259302   -1.46480405
 O          1.56510603   -1.07584405    0.57343000
 C          0.56825799    1.77339101   -0.08926300
 H          1.24516499    1.01514995   -1.95323503
 O          2.81957197    1.05199802   -0.68916798
 O          0.97541100    1.73743701    1.27228796
 H          0.71376002    2.78646207   -0.48758599
 O         -1.68892395    2.16004801    0.69763798
 H         -1.23600197    1.58700001   -1.25184798
 H         -3.20035601    0.02722200    0.54571402
 O         -2.69044709   -1.91460097    0.23532900
 H         -2.83155107   -0.36459500   -1.14865696
 H         -2.05519891   -2.41373396   -0.29278901
 H         -1.80433297    3.04790902    0.33828500
 H          0.30024099    2.21207404    1.77496505
 C          1.49127805   -2.48827291    0.75236499
 H          2.00248599   -3.00639796   -0.06720000
 H          0.45140001   -2.82445002    0.79950500
 H          1.98920095   -2.71466303    1.69477201
 H          3.00052595    0.87158400    0.24247099
