26
wb97x-d4 ma-def2-tzvp(-f) cpcm(dmso) E: -726.365219094836, G: -726.18835647
 C         -1.18587995   -0.41355699   -0.29146701
 C         -0.16159999   -1.50061202   -0.19675000
 O         -0.90390700    0.61962402    0.66123497
 C         -2.60167098   -0.88672602    0.00064900
 H         -1.18741798    0.01980600   -1.30532706
 C          0.41578600    1.11719096    0.62127501
 C          1.43201804    0.01551300    0.91831702
 H          0.45155200    1.89180195    1.39541399
 O          0.75011402    1.65951395   -0.62734801
 C          1.27753103   -1.12556303   -0.08208200
 H          1.23479295   -0.36856300    1.92122698
 O          2.75352693    0.53020298    0.93170702
 O          2.00452995   -2.29159307    0.31107000
 H          1.65647602   -0.78926802   -1.06133401
 O         -0.45263299   -2.61922193   -0.92234898
 H         -3.28077412   -0.03599300   -0.12831700
 O         -2.73794603   -1.44640303    1.30106294
 H         -2.87707090   -1.66294897   -0.71410000
 H         -2.43478107   -0.78198600    1.93209398
 H          0.32351601   -3.19923496   -0.88735998
 H          2.92593288   -2.16682696    0.05559200
 C          0.05532500    2.87086010   -0.92137003
 H          0.22715500    3.61037207   -0.13170300
 H         -1.01824105    2.68992209   -1.02334595
 H          0.45336199    3.24342704   -1.86470795
 H          2.88030100    1.02026606    0.10791800
