26
wb97x-d4 ma-def2-tzvp(-f) cpcm(dmso) E: -726.363281359741, G: -726.18666707
 C         -1.19922900   -0.26715299   -0.18979800
 C         -0.15667599   -1.33930898   -0.30567700
 O         -0.79441702    0.74022800    0.73887002
 C         -2.54404306   -0.81487697    0.27118701
 H         -1.36488104    0.19244200   -1.17831802
 C          0.50709701    1.24722600    0.51817203
 C          1.52785802    0.13500500    0.73277003
 H          0.63672698    2.03539109    1.26856303
 O          0.66686100    1.76689899   -0.77012599
 C          1.29434597   -0.98963702   -0.26683301
 H          1.35688698   -0.25551400    1.74395299
 O          2.83373189    0.67571598    0.62831300
 O          2.10150290   -2.13622403    0.02451600
 H          1.63547003   -0.65916401   -1.25672305
 O         -0.52495599   -2.37852812   -1.11107194
 H         -3.23588800    0.01990400    0.39828199
 O         -2.48299408   -1.48819005    1.52267802
 H         -2.93536592   -1.47440004   -0.51048303
 H         -1.88453102   -2.23939610    1.42615402
 H          0.23809101   -2.96620893   -1.21679294
 H          1.81976795   -2.48603010    0.88173801
 C         -0.09767800    2.95138097   -0.98778099
 H         -1.17020798    2.74347401   -0.93406701
 H          0.15345600    3.31146312   -1.98518503
 H          0.16130701    3.71498299   -0.24586301
 H          3.45776701   -0.03948400    0.80352402
