26
wb97x-d4 ma-def2-tzvp(-f) cpcm(dmso) E: -726.364198979661, G: -726.1866133799999
 C         -1.10580695   -0.50987399   -0.24654800
 C         -0.06356200   -1.57181096   -0.32896399
 O         -0.75527799    0.44145101    0.80046099
 C         -2.49482608   -1.01169503    0.09512300
 H         -1.13911402    0.03221100   -1.19637501
 C          0.50747299    1.04349303    0.60116798
 C          1.60586500   -0.02182900    0.58757102
 H          0.64601099    1.71336806    1.45766699
 O          0.57017100    1.76784897   -0.59539801
 C          1.33802104   -1.05345404   -0.51179498
 H          1.55618799   -0.53904498    1.55378795
 O          2.86031890    0.61830801    0.43523201
 O          2.29777694   -2.09668589   -0.34867501
 H          1.44482696   -0.56992698   -1.48687696
 O         -0.19623800   -2.61216497    0.54634601
 H         -2.80375504   -1.75112796   -0.64570099
 O         -3.45201707    0.04283400    0.05511000
 H         -2.48513889   -1.48596597    1.08152795
 H         -3.16640711    0.71202999    0.68949699
 H          0.66386300   -3.06407189    0.57711899
 H          2.41580796   -2.54169703   -1.19674206
 C         -0.28713000    2.90718889   -0.60053700
 H         -0.08832400    3.44821191   -1.52535105
 H         -0.06955500    3.55387497    0.25706401
 H         -1.33941996    2.61026692   -0.57125998
 H          3.54024911   -0.06173700    0.51655000
