26
wb97x-d4 ma-def2-tzvp(-f) cpcm(dmso) E: -726.364005863541, G: -726.18632495
 C         -1.18176401   -0.38063401   -0.06810200
 C         -0.26245499   -1.52509904   -0.32988700
 O         -0.64200300    0.45130199    0.99438602
 C         -2.57927108   -0.77733302    0.38879699
 H         -1.25389504    0.22550100   -0.97790802
 C          0.65699798    0.93181998    0.72953498
 C          1.64198601   -0.21468900    0.47889900
 H          0.94590002    1.49067402    1.62661695
 O          0.70859301    1.76647699   -0.39764300
 C          1.13905704   -1.11112201   -0.66095901
 H          1.70129597   -0.81499797    1.39001298
 O          2.95193195    0.26968199    0.22816700
 O          1.94492996   -2.27720594   -0.78630102
 H          1.14224803   -0.53508902   -1.59365296
 O         -0.38448200   -2.59695911    0.50897503
 H         -2.51610088   -1.42098296    1.26661003
 O         -3.27102208   -1.51352596   -0.61347598
 H         -3.12778401    0.12973700    0.66193199
 H         -3.45078397   -0.92065299   -1.35275102
 H          0.42038599   -3.13047910    0.41055000
 H          2.86826992   -2.00776005   -0.69879103
 C          0.03965000    3.01288104   -0.21227300
 H          0.20540200    3.59790611   -1.11615205
 H          0.45469600    3.54386711    0.65123302
 H         -1.03321302    2.86217809   -0.06633900
 H          2.88142800    0.94450498   -0.46147901
