26
wb97x-d4 ma-def2-tzvp(-f) cpcm(dmso) E: -726.363487511078, G: -726.18631828
 C         -1.19565797   -0.27279401    0.06005900
 C         -0.23594600   -1.40857506   -0.11055800
 O         -0.67162901    0.66707498    1.00352502
 C         -2.55328298   -0.71046901    0.61101598
 H         -1.36805403    0.23353900   -0.90293503
 C          0.63766599    1.11176205    0.71893901
 C          1.63390899   -0.04764800    0.74043202
 H          0.87096000    1.83286500    1.51004601
 O          0.73936999    1.71687901   -0.54083002
 C          1.21854401   -1.11607206   -0.26648599
 H          1.62224996   -0.48694801    1.73987496
 O          2.95724106    0.40897000    0.51090997
 O          1.92953897   -2.34112811   -0.07971100
 H          1.41926599   -0.74172199   -1.28352904
 O         -0.72739702   -2.48206997   -0.79993200
 H         -2.40541196   -1.31599903    1.51256001
 O         -3.32906795   -1.40755701   -0.35516199
 H         -3.11495399    0.18599400    0.88053101
 H         -2.83755994   -2.19954395   -0.60792601
 H         -0.00497800   -3.11946607   -0.91006398
 H          2.77805591   -2.26653504   -0.53106701
 C          0.05046000    2.96368909   -0.62648600
 H          0.26742500    3.37814403   -1.61042905
 H          0.40631199    3.65015101    0.14934400
 H         -1.02832794    2.82138491   -0.51922703
 H          2.94126892    0.94607300   -0.29289499
