26
wb97x-d4 ma-def2-tzvp(-f) cpcm(dmso) E: -726.363719135886, G: -726.18627183
 C         -1.14106297   -0.52217603   -0.32324800
 C         -0.13033199   -1.60928094   -0.44300300
 O         -0.76321697    0.39144701    0.75062001
 C         -2.54111290   -0.99654901    0.01173200
 H         -1.16334200    0.05014600   -1.25565898
 C          0.52208102    0.95467198    0.57525498
 C          1.58013499   -0.15593600    0.53217798
 H          0.67609203    1.59204698    1.45482004
 O          0.61898398    1.71190202   -0.59663099
 C          1.27820396   -1.12271905   -0.61462498
 H          1.50731504   -0.70746398    1.47598505
 O          2.89738488    0.34221300    0.35311100
 O          2.15251899   -2.24274898   -0.58014101
 H          1.37382305   -0.58343297   -1.56389296
 O         -0.29581800   -2.68104100    0.38770401
 H         -2.87449002   -1.70342696   -0.75019699
 O         -3.46978498    0.08311400    0.01077700
 H         -2.53928995   -1.50248694    0.98243201
 H         -3.16173196    0.72728699    0.66037399
 H          0.54592699   -3.16512609    0.40335301
 H          3.03856707   -1.91386700   -0.38029900
 C         -0.19089501    2.88455701   -0.57214499
 H          0.04710100    3.49633408    0.30563101
 H         -1.25466299    2.62972903   -0.55691499
 H          0.03572500    3.44416094   -1.47951996
 H          3.25188208    0.59864902    1.21230304
