26
wb97x-d4 ma-def2-tzvp(-f) cpcm(dmso) E: -726.363060704321, G: -726.18593331
 C         -1.17159700   -0.25175500   -0.18529201
 C         -0.20833600   -1.37733102   -0.34906700
 O         -0.73634797    0.62262398    0.89206898
 C         -2.57888699   -0.69223797    0.19416900
 H         -1.20186496    0.33066601   -1.11121905
 C          0.57203299    1.12373900    0.70773298
 C          1.58199000   -0.02391700    0.63946098
 H          0.76725203    1.74373305    1.59059203
 O          0.68846798    1.88904297   -0.45800400
 C          1.22889602   -0.96824002   -0.51268703
 H          1.48929596   -0.58485198    1.57786500
 O          2.88414001    0.51966500    0.51632202
 O          2.10076499   -2.09340000   -0.42019799
 H          1.37127304   -0.43915501   -1.45934403
 O         -0.43291900   -2.47097492    0.44029301
 H         -2.56106997   -1.16774094    1.17960095
 O         -3.13866496   -1.56009305   -0.78399801
 H         -3.22262001    0.18731500    0.24572399
 H         -2.67259192   -2.40331411   -0.73295897
 H          0.38004699   -3.00309706    0.42624599
 H          2.19170904   -2.48596311   -1.29682696
 C         -0.06953500    3.09531498   -0.41094300
 H          0.20239100    3.68502092    0.47199401
 H         -1.14298201    2.88623095   -0.38852200
 H          0.17272100    3.65626907   -1.31334102
 H          3.50642991   -0.21754900    0.54032999
