26
wb97x-d4 ma-def2-tzvp(-f) cpcm(dmso) E: -726.361859622444, G: -726.18582383
 C         -1.14587998   -0.42938399   -0.00740500
 C         -0.12376300   -1.50523901   -0.21798600
 O         -0.66889399    0.54336298    0.92698801
 C         -2.45435309   -0.98292601    0.54177397
 H         -1.36133897    0.06985500   -0.96711099
 C          0.61176300    1.06114995    0.62208700
 C          1.64781904   -0.06192700    0.71286201
 H          0.79935098    1.82074594    1.39083803
 O          0.66774499    1.63182104   -0.65317202
 C          1.32217896   -1.14314497   -0.30287099
 H          1.57086396   -0.49118599    1.71711802
 O          2.97014093    0.38960800    0.46472299
 O          2.08056092   -2.33694196   -0.08991700
 H          1.55103695   -0.75678903   -1.30842900
 O         -0.53716600   -2.53178692   -1.01801395
 H         -2.75865507   -1.84215701   -0.06237200
 O         -3.48418999    0.00009400    0.58116198
 H         -2.29832792   -1.31565905    1.57006001
 H         -3.74143291    0.20010599   -0.32672501
 H          0.22482599   -3.11112809   -1.17035198
 H          2.96403098   -2.19251990   -0.44861701
 C         -0.13299100    2.80638909   -0.77000898
 H         -1.19486797    2.57332206   -0.65058798
 H          0.04063100    3.20993590   -1.76720703
 H          0.16177200    3.54655290   -0.01778800
 H          3.28914309    0.84784400    1.25095105
