26
wb97x-d4 ma-def2-tzvp(-f) cpcm(dmso) E: -726.361842027089, G: -726.18579181
 C         -1.14455795   -0.43329000    0.03193700
 C         -0.13051100   -1.51673102   -0.17436200
 O         -0.64241898    0.55754697    0.93385202
 C         -2.44432902   -0.96560401    0.62041801
 H         -1.37742901    0.04691700   -0.93362701
 C          0.62859601    1.07074904    0.58446699
 C          1.66932201   -0.04911400    0.66088700
 H          0.83626997    1.84112501    1.33724594
 O          0.64687598    1.62286198   -0.69922799
 C          1.30986702   -1.15430999   -0.31686801
 H          1.63193500   -0.45506901    1.67710495
 O          2.97968507    0.39807999    0.35112000
 O          2.07723403   -2.34182405   -0.10216200
 H          1.50403595   -0.79145402   -1.33874702
 O         -0.56522501   -2.57079196   -0.92487800
 H         -2.76845598   -1.83345699    0.03918300
 O         -3.46527505    0.02593400    0.66446000
 H         -2.26847506   -1.28036201    1.65120006
 H         -3.74104190    0.21412300   -0.24051300
 H          0.19457500   -3.14967704   -1.08933401
 H          2.95236707   -2.20064211   -0.48196900
 C         -0.15503800    2.79656506   -0.81075901
 H         -0.00344600    3.18865609   -1.81617796
 H          0.15740900    3.54492402   -0.07377000
 H         -1.21428204    2.56613398   -0.66465402
 H          3.33231401    0.86871099    1.11517298
