26
wb97x-d4 ma-def2-tzvp(-f) cpcm(dmso) E: -726.36345859692, G: -726.18577466
 C         -1.12921703   -0.38614500   -0.12430800
 C         -0.16261800   -1.50653195   -0.28602001
 O         -0.69855398    0.47038499    0.97061503
 C         -2.55132389   -0.80464900    0.22088000
 H         -1.13785601    0.21170001   -1.04241097
 C          0.60443801    0.97580701    0.79898202
 C          1.65271997   -0.13513300    0.64987099
 H          0.80723900    1.56290805    1.70194495
 O          0.72090101    1.78795505   -0.34101400
 C          1.26593196   -1.08228397   -0.49354801
 H          1.67242801   -0.71031702    1.57941699
 O          2.94317198    0.42537299    0.48853999
 O          2.14308810   -2.20425391   -0.44754800
 H          1.36406302   -0.54686898   -1.44372106
 O         -0.34412500   -2.57997990    0.53856403
 H         -2.54986000   -1.44515800    1.10353506
 O         -3.14955306   -1.55460405   -0.83012402
 H         -3.13265896    0.09551000    0.44577500
 H         -3.29092312   -0.96410799   -1.57943404
 H          0.48423299   -3.08790588    0.52410001
 H          2.13458705   -2.63136005   -1.31287897
 C          0.00172100    3.01482391   -0.24029601
 H          0.31237400    3.56831193    0.65281999
 H         -1.07605696    2.83375597   -0.19884500
 H          0.23922300    3.59493089   -1.13168395
 H          2.87662792    1.09783697   -0.20321301
