26
wb97x-d4 ma-def2-tzvp(-f) cpcm(dmso) E: -726.362232731036, G: -726.18569467
 C         -1.11220706   -0.41560000   -0.05083900
 C         -0.04328200   -1.43355298   -0.32030800
 O         -0.67782199    0.53967601    0.92080402
 C         -2.38609791   -1.05739999    0.48497900
 H         -1.35930097    0.11005000   -0.98841298
 C          0.58558500    1.11571896    0.65434802
 C          1.65493298    0.03082800    0.71870202
 H          0.73668402    1.85270000    1.45131600
 O          0.63986897    1.73057604   -0.60018498
 C          1.39021504   -1.01214004   -0.35777801
 H          1.56146097   -0.44543400    1.70262694
 O          2.93329811    0.62721300    0.58069599
 O          2.27035189   -2.13538599   -0.24577200
 H          1.63090301   -0.57520503   -1.33587801
 O         -0.41579399   -2.40849209   -1.20137596
 H         -2.65377593   -1.90343904   -0.15433000
 O         -3.46396899   -0.13146800    0.57908303
 H         -2.20049095   -1.42712498    1.49560702
 H         -3.74620891    0.09085700   -0.31602901
 H          0.36610100   -2.94149590   -1.40981197
 H          2.07892108   -2.58010197    0.59182799
 C         -0.19098300    2.88699603   -0.68741000
 H          0.07310800    3.60726595    0.09482900
 H         -1.24778199    2.62145209   -0.59305501
 H         -0.01371700    3.33002210   -1.66706705
 H          3.59000206   -0.07651400    0.65343499
