26
wb97x-d4 ma-def2-tzvp(-f) cpcm(dmso) E: -726.363028986366, G: -726.18566671
 C         -1.10556304   -0.46068701   -0.15729100
 C         -0.07910300   -1.53397000   -0.30413699
 O         -0.70661199    0.45580199    0.89900798
 C         -2.48761010   -0.98250002    0.19237000
 H         -1.15786505    0.10431500   -1.09440994
 C          0.55899298    1.04078603    0.67665601
 C          1.64128304   -0.03808100    0.60375297
 H          0.73348498    1.68741798    1.54450095
 O          0.59953898    1.79490995   -0.50353599
 C          1.32472801   -1.03360403   -0.51473498
 H          1.61135006   -0.58098298    1.55669701
 O          2.90104699    0.58701801    0.43260100
 O          2.27209711   -2.09552407   -0.41049999
 H          1.41035795   -0.52450198   -1.47877097
 O         -0.20272601   -2.59613299    0.54692501
 H         -2.74048209   -1.79481006   -0.49732801
 O         -3.47943711    0.03953800    0.15929499
 H         -2.48631191   -1.37925601    1.20849597
 H         -3.58308291    0.32662600   -0.75561202
 H          0.64965999   -3.06312704    0.53854501
 H          2.35423708   -2.52027607   -1.27303100
 C         -0.24326700    2.94380689   -0.45775199
 H         -1.29844201    2.65874600   -0.41730800
 H         -0.05465000    3.51085210   -1.36901796
 H         -0.00223500    3.56124496    0.41505399
 H          3.57061100   -0.10761000    0.45952600
