26
wb97x-d4 ma-def2-tzvp(-f) cpcm(dmso) E: -726.362266385138, G: -726.18543498
 C         -1.05972600   -0.28836000    0.03914600
 C         -0.04208600   -1.37184799   -0.19315900
 O         -0.57870603    0.68375999    0.96508300
 C         -2.36108804   -0.81281799    0.63293999
 H         -1.29907095    0.20360699   -0.91807002
 C          0.69098300    1.21425104    0.62952101
 C          1.73182297    0.10294500    0.68287700
 H          0.89319098    1.96648300    1.40034699
 O          0.70213503    1.79410601   -0.64042801
 C          1.39844894   -0.99536097   -0.31425899
 H          1.68288302   -0.32454699    1.69137502
 O          3.01504493    0.65875399    0.44861299
 O          2.28069091   -2.08786511   -0.03387500
 H          1.60709798   -0.62579900   -1.33004904
 O         -0.40918100   -2.41178799   -0.99850303
 H         -2.15468001   -1.33887196    1.56983805
 O         -2.93807006   -1.70359898   -0.33005300
 H         -3.03236103    0.02892100    0.82799298
 H         -3.62957692   -2.21913099    0.10111100
 H         -1.38189900   -2.49001288   -0.95635599
 H          2.25938892   -2.69199991   -0.78481799
 C         -0.10693900    2.96627402   -0.72285599
 H          0.04009800    3.38170910   -1.71945906
 H          0.20335500    3.69898701    0.03051400
 H         -1.16449594    2.72621989   -0.57986403
 H          3.65274096   -0.06401500    0.50238901
