26
wb97x-d4 ma-def2-tzvp(-f) cpcm(dmso) E: -726.363062214026, G: -726.18542499
 C         -1.14531100   -0.48965901   -0.41873801
 C         -0.16323601   -1.60850298   -0.34754500
 O         -0.86807001    0.48708001    0.62884003
 C         -2.61914992   -0.83959299   -0.27707601
 H         -1.01311600    0.00716800   -1.38576305
 C          0.44705001    0.99281400    0.60176998
 C          1.48837698   -0.12772900    0.69054502
 H          0.52130502    1.65065205    1.47507501
 O          0.72759998    1.71321797   -0.56983203
 C          1.26275206   -1.15263200   -0.42934999
 H          1.36528206   -0.63196898    1.65227902
 O          2.80865312    0.39043701    0.66872001
 O          2.11481404   -2.27993393   -0.27201000
 H          1.43932700   -0.66419202   -1.39513803
 O         -0.41638699   -2.62853408    0.52262700
 H         -3.20516706    0.03429900   -0.58496302
 O         -2.98972392   -1.23766005    1.03607702
 H         -2.85732889   -1.66758096   -0.94720298
 H         -2.65293193   -0.56552702    1.64135802
 H          0.41134000   -3.12688208    0.62084001
 H          2.99472189   -1.95371199   -0.04318900
 C          0.00305400    2.93801308   -0.66972399
 H          0.17822400    3.55907297    0.21563900
 H         -1.06870699    2.74953103   -0.77557403
 H          0.37173900    3.45240307   -1.55666995
 H          2.86489010    0.99941802   -0.08099400
