26
wb97x-d4 ma-def2-tzvp(-f) cpcm(dmso) E: -726.361686226825, G: -726.18513524
 C         -1.20057905   -0.25129700    0.02828100
 C         -0.23852700   -1.37442994   -0.20524400
 O         -0.65362102    0.67564702    0.96994603
 C         -2.53168011   -0.71587902    0.62106901
 H         -1.41613698    0.27016100   -0.91771197
 C          0.64769900    1.12876201    0.64099401
 C          1.62892902   -0.04610000    0.67999798
 H          0.89398801    1.86216199    1.41818202
 O          0.69853199    1.71834302   -0.62449002
 C          1.21959901   -1.09150505   -0.34497499
 H          1.56067502   -0.49278799    1.67713499
 O          2.96233892    0.35053301    0.40152401
 O          1.91613603   -2.32743692   -0.17030400
 H          1.43754399   -0.70220101   -1.35163605
 O         -0.73684698   -2.41374493   -0.94152200
 H         -2.34252405   -1.33260798    1.50727499
 O         -3.33321691   -1.40930700   -0.32649601
 H         -3.09504294    0.16868500    0.92433000
 H         -2.83347297   -2.18103194   -0.62232101
 H         -0.02253700   -3.05653691   -1.07001603
 H          2.77602911   -2.24706793   -0.59872597
 C         -0.03243900    2.94106197   -0.69896901
 H         -1.10350502    2.76931310   -0.55975002
 H          0.14335100    3.35487509   -1.69152498
 H          0.32300699    3.64576197    0.06106400
 H          3.33230090    0.75663000    1.19388700
