26
wb97x-d4 ma-def2-tzvp(-f) cpcm(dmso) E: -726.360900538581, G: -726.1837417099999
 C         -1.05012000   -0.51843899   -0.18375900
 C          0.07718100   -1.47938800   -0.44046500
 O         -0.72237998    0.44142199    0.81990099
 C         -2.30994296   -1.21516502    0.32320401
 H         -1.29869497    0.00696000   -1.12007904
 C          0.54352403    1.04556203    0.66676497
 C          1.64232600    0.00180300    0.82780802
 H          0.60235900    1.79221499    1.46638000
 O          0.70920300    1.65058899   -0.58400702
 C          1.50698996   -1.10052896   -0.22318900
 H          1.52952003   -0.43930301    1.82127702
 O          2.92619610    0.60385400    0.80033797
 O          2.31825495   -2.23365402    0.10472700
 H          1.92641902   -0.72957402   -1.16778505
 O         -0.07634500   -2.34951305   -1.48488903
 H         -2.61899495   -1.99750996   -0.37293699
 O         -3.40267801   -0.31117699    0.42189100
 H         -2.09169507   -1.67741096    1.29247999
 H         -3.15061998    0.37862000    1.04823804
 H         -1.01091504   -2.48658705   -1.68645096
 H          1.91169095   -2.67122102    0.86456603
 C         -0.09144900    2.82039690   -0.75226998
 H          0.12800200    3.54860711    0.03588100
 H         -1.15614796    2.57101893   -0.73138899
 H          0.16454799    3.24280500   -1.72333300
 H          2.99377108    1.10561800   -0.02290300
