26
wb97x-d4 ma-def2-tzvp(-f) cpcm(dmso) E: -726.36060178659, G: -726.18372191
 C         -1.29651999   -0.27353299   -0.36413899
 C         -0.08568200   -0.96586502   -0.88879198
 O         -0.96406001    0.87347502    0.43197200
 C         -2.17159510   -1.19610298    0.47786799
 H         -1.90734804    0.06030100   -1.21311903
 C          0.39078200    1.25158501    0.48612601
 C          1.27960098    0.07931200    0.88765299
 H          0.42711499    2.02965307    1.25739598
 O          0.87916398    1.76408505   -0.72620797
 C          1.17608404   -1.07755494   -0.11841400
 H          0.92310601   -0.27645001    1.85568798
 O          2.62033701    0.50342602    1.08596206
 O          1.31936002   -2.35519791    0.53453898
 H          2.02888608   -1.02409196   -0.80509901
 O         -0.35309801   -1.85763896   -1.88700604
 H         -2.99385691   -0.61721897    0.91105098
 O         -1.36878800   -1.77573800    1.50881398
 H         -2.58430791   -1.97370195   -0.17371900
 H         -1.93868697   -2.30770302    2.07509494
 H          0.43314999   -2.39314604   -2.05961800
 H          0.49890801   -2.47637796    1.04055703
 C          0.30119801    3.01962495   -1.07545400
 H         -0.76737797    2.91326499   -1.28275299
 H          0.81262797    3.36757398   -1.97274601
 H          0.44352499    3.74597192   -0.26702201
 H          2.89748001    0.96204501    0.28136900
