26
wb97x-d4 ma-def2-tzvp(-f) cpcm(dmso) E: -726.365874854267, G: -726.18793866
 C         -1.13503397   -0.54723400   -0.29249501
 C         -0.13092300   -1.64492297   -0.36835501
 O         -0.78083497    0.37369001    0.78181702
 C         -2.54919195   -1.00527406    0.00467100
 H         -1.12296700    0.01261300   -1.23262405
 C          0.51236397    0.91898400    0.65375298
 C          1.57937598   -0.17909500    0.60192198
 H          0.65317202    1.54324198    1.54349601
 O          0.66571802    1.69107604   -0.50806302
 C          1.27842605   -1.16386998   -0.53707403
 H          1.54994202   -0.72466803    1.54838395
 O          2.88419199    0.36587200    0.48887500
 O          2.15343499   -2.28277707   -0.48709500
 H          1.37388599   -0.63623297   -1.49350905
 O         -0.31230399   -2.68851590    0.49473700
 H         -2.86413002   -1.71900904   -0.75845301
 O         -3.46791792    0.08236000   -0.03825800
 H         -2.58075690   -1.49856496    0.98121601
 H         -3.18012190    0.72640699    0.62064898
 H          0.52344698   -3.18144989    0.53060502
 H          3.04262304   -1.95228505   -0.30489999
 C         -0.09977200    2.89479208   -0.49147099
 H         -1.17111695    2.67591810   -0.50071597
 H          0.16585299    3.45152211   -1.38961804
 H          0.14286099    3.48959398    0.39598599
 H          2.86977601    0.99782801   -0.24348301
