26
wb97x-d4 ma-def2-tzvp(-f) cpcm(dmso) E: -726.360806287589, G: -726.1836995799999
 C         -1.01023495   -0.59913498   -0.26904100
 C          0.04156400   -1.65638006   -0.35837501
 O         -0.66523600    0.32327101    0.80058402
 C         -2.41295910   -1.08954501    0.03466700
 H         -1.02454603   -0.04367700   -1.21152997
 C          0.58560598    0.94541198    0.60992402
 C          1.72728896   -0.07301900    0.47368401
 H          0.73905897    1.56490302    1.50070906
 O          0.61683702    1.74436605   -0.54400802
 C          1.41351497   -1.10670900   -0.62729698
 H          1.81984103   -0.60411400    1.42518902
 O          2.95522904    0.59887397    0.25968200
 O          2.41316795   -2.10944605   -0.70272201
 H          1.40892804   -0.59345299   -1.59273803
 O          0.07187300   -2.66856289    0.56587100
 H         -2.71871901   -1.80327106   -0.73278099
 O         -3.35233402   -0.02259600    0.01070800
 H         -2.43723392   -1.58884704    1.01171398
 H         -3.06109309    0.63042402    0.65973300
 H         -0.81929201   -2.92639899    0.83210999
 H          2.30648398   -2.68971705    0.06211300
 C         -0.20118199    2.90910006   -0.44692299
 H         -0.02404500    3.49654794   -1.34729505
 H          0.07458000    3.49603295    0.43615499
 H         -1.25937700    2.63955903   -0.38830301
 H          2.81227589    1.22638094   -0.46182901
