26
wb97x-d4 ma-def2-tzvp(-f) cpcm(dmso) E: -726.360893120588, G: -726.18367398
 C         -0.83150899   -0.71438801   -0.94364101
 C          0.23082100   -1.68916094   -0.53097498
 O         -0.28685001    0.60276997   -1.07111096
 C         -2.08204699   -0.75746900   -0.06636500
 H         -1.17497206   -0.97684097   -1.95067704
 C          0.54807001    1.02838504    0.01100900
 C          1.77183604    0.12467000    0.08867900
 H         -0.01634500    0.98399502    0.94942898
 O          0.94544601    2.33108711   -0.25397801
 C          1.31764102   -1.30741704    0.40824601
 H          2.42741799    0.47295401    0.88866901
 O          2.52296591    0.15912500   -1.11495101
 O          0.93466401   -1.42879903    1.79237497
 H          2.17736197   -1.97276402    0.27866599
 O         -0.16177800   -2.99104595   -0.62809998
 H         -2.75566697    0.04792200   -0.37645900
 O         -1.73002303   -0.60871702    1.31285799
 H         -2.57698107   -1.72015405   -0.22814400
 H         -2.51046705   -0.78152603    1.85156596
 H          0.51745301   -3.56673288   -0.25114700
 H         -0.00474700   -1.18082297    1.85126603
 C         -0.10025900    3.28715110   -0.07654200
 H         -0.88950300    3.14972901   -0.82036000
 H          0.35010400    4.27164078   -0.20123200
 H         -0.52809399    3.20438004    0.92872399
 H          1.90546000    0.03202800   -1.84780502
