26
wb97x-d4 ma-def2-tzvp(-f) cpcm(dmso) E: -726.358313774723, G: -726.18247854
 C         -0.89737201   -0.65414500   -0.31851000
 C          0.06176800   -1.79184496   -0.16860101
 O         -0.53664702    0.33021599    0.65888000
 C         -2.34144211   -1.03555501   -0.04074700
 H         -0.84166098   -0.21121100   -1.32412601
 C          0.71702498    0.94525099    0.44029799
 C          1.77787197   -0.02449500   -0.11797500
 H          1.02268696    1.30665803    1.42686605
 O          0.62807798    2.01941204   -0.45533600
 C          1.44656503   -1.46560800    0.28461099
 H          2.74799991    0.25668699    0.30493701
 O          1.83528900   -0.00543000   -1.53720105
 O          1.64202499   -1.64574301    1.69641101
 H          2.16643000   -2.12527800   -0.20828900
 O         -0.18972100   -2.87796998   -0.95320499
 H         -2.64449310   -1.82980704   -0.72390997
 O         -3.22001696    0.06309500   -0.26089001
 H         -2.42480493   -1.40390694    0.98845202
 H         -2.93207908    0.78037202    0.31733301
 H          0.54426497   -3.50397491   -0.88861197
 H          0.82235497   -1.38832200    2.13697195
 C         -0.12165200    3.12387204    0.05142700
 H         -1.16919994    2.84894395    0.19733500
 H         -0.05276700    3.91896296   -0.68979001
 H          0.30305001    3.46734691    1.00077295
 H          1.65644503    0.90247202   -1.81709898
