26
wb97x-d4 ma-def2-tzvp(-f) cpcm(dmso) E: -726.358066076948, G: -726.18227684
 C         -1.41396594   -0.24657600   -0.25505200
 C         -0.26511300   -0.96942902   -0.86625701
 O         -0.99908400    0.90547299    0.49678600
 C         -2.23921609   -1.15159297    0.66545701
 H         -2.08101201    0.08749700   -1.06097496
 C          0.36843199    1.25206995    0.43028700
 C          1.22360206    0.04167400    0.80146098
 H          0.48592800    2.04284310    1.18186903
 O          0.75842601    1.72739601   -0.82733500
 C          1.06031001   -1.07534301   -0.22657999
 H          0.84378397   -0.31888399    1.76164997
 O          2.60711789    0.34898099    0.89999998
 O          1.18898904   -2.38171196    0.38827100
 H          1.84894502   -0.97541302   -0.98369002
 O         -0.58608800   -1.75389600   -1.93315899
 H         -3.03177691   -0.56227100    1.13217795
 O         -1.47839797   -1.72150600    1.72294402
 H         -2.70144701   -1.93070400    0.04698300
 H         -0.73594201   -2.21564293    1.34355497
 H          0.17752101   -2.29063392   -2.18601394
 H          2.09495592   -2.47191310    0.71189302
 C          0.14188799    2.96632600   -1.16795897
 H         -0.93753999    2.84628391   -1.29656303
 H          0.58531302    3.29444194   -2.10794497
 H          0.33212101    3.71699405   -0.39195901
 H          2.75224805    0.83553702    1.72015405
