26
wb97x-d4 ma-def2-tzvp(-f) cpcm(dmso) E: -726.358418715379, G: -726.18204778
 C         -0.90027100   -0.47669601   -0.17235801
 C          0.03895400   -1.64398503   -0.08433900
 O         -0.43362999    0.53762698    0.71205902
 C         -2.31986094   -0.81764799    0.26205000
 H         -0.94016701   -0.09312600   -1.20389104
 C          0.83844501    1.06974900    0.39824101
 C          1.79738998    0.06485000   -0.26901200
 H          1.25005198    1.39080095    1.35938704
 O          0.74240798    2.16998506   -0.46859199
 C          1.47854698   -1.36018705    0.17500301
 H          2.81566000    0.32705399    0.03827000
 O          1.69287097    0.07879500   -1.68558097
 O          1.84033406   -1.44472098    1.56463897
 H          2.09187388   -2.05396509   -0.41083100
 O         -0.24084400   -2.76601791   -0.80735898
 H         -2.30710697   -1.21088195    1.28270304
 O         -2.80998707   -1.80569196   -0.65446901
 H         -2.94043589    0.08287100    0.22582400
 H         -3.57686901   -2.23628807   -0.25961801
 H         -1.20578206   -2.77873993   -0.95550299
 H          1.37999904   -2.20712900    1.93467200
 C          0.14906700    3.31932807    0.13503399
 H          0.18610500    4.11950779   -0.60310602
 H          0.71386302    3.61436701    1.02587104
 H         -0.88996202    3.12251306    0.40987900
 H          1.54934800    0.99762702   -1.94897604
