26
wb97x-d4 ma-def2-tzvp(-f) cpcm(dmso) E: -726.356962543417, G: -726.1819053099999
 C         -1.37620199   -0.29635999   -0.02540800
 C         -0.31541899   -1.10030997   -0.69192302
 O         -0.89445502    0.88684899    0.64578301
 C         -2.14604306   -1.07842195    1.05094099
 H         -2.08802104    0.02118000   -0.79724902
 C          0.48413000    1.15747797    0.59042901
 C          1.30973399   -0.09656200    0.85397601
 H          0.65580100    1.90102994    1.37694299
 O          0.89537799    1.67263603   -0.65089101
 C          1.10853505   -1.08995795   -0.28647599
 H          0.96165198   -0.54123700    1.78862405
 O          2.68277907    0.20874301    1.04326999
 O          1.53866601   -2.41503501    0.07878900
 H          1.71711099   -0.75779998   -1.14019001
 O         -0.66228199   -1.60378206   -1.91292596
 H         -1.44454706   -1.44079804    1.80534804
 O         -2.80561900   -2.21860409    0.51795697
 H         -2.85884404   -0.39993000    1.53264499
 H         -3.53195810   -1.91463697   -0.03905400
 H          0.06673600   -2.13483596   -2.26167488
 H          2.50379395   -2.40496898    0.10965200
 C          0.39429301    2.98256803   -0.90761101
 H          0.83827400    3.31480694   -1.84562898
 H          0.68234903    3.66792893   -0.10257900
 H         -0.69486302    2.97256398   -1.00274301
 H          2.97902298    0.70745897    0.26999599
