26
wb97x-d4 ma-def2-tzvp(-f) cpcm(dmso) E: -726.358929207461, G: -726.1818104299999
 C         -1.06415296   -0.70487100   -0.90042001
 C          0.02029300   -1.69961596   -0.62165999
 O         -0.53209400    0.61698997   -1.00434005
 C         -2.25038505   -0.79143202    0.06981500
 H         -1.48172998   -0.92580301   -1.88981998
 C          0.39692700    0.99651200    0.00390100
 C          1.60172403    0.06091300    0.05259800
 H         -0.10088200    1.01895297    0.97970402
 O          0.87803203    2.26124096   -0.32838500
 C          1.15313494   -1.38327897    0.27762699
 H          2.22937608    0.37113801    0.89731902
 O          2.34054494    0.09535700   -1.15752602
 O          0.72036201   -1.57333004    1.64722705
 H          1.99831998   -2.05209994    0.07672100
 O         -0.36697999   -2.99516010   -0.79642701
 H         -2.99694991   -0.05429800   -0.23442000
 O         -1.93403304   -0.51615202    1.42800498
 H         -2.69064212   -1.79094899   -0.03606700
 H         -1.14235306   -1.02035999    1.67738199
 H          0.33102301   -3.59149098   -0.49325201
 H          1.46418595   -1.39869797    2.23888612
 C         -0.07919900    3.30677700   -0.15280800
 H         -0.90775597    3.20280600   -0.85731798
 H          0.44277301    4.24470377   -0.33896801
 H         -0.46581301    3.29900908    0.87172002
 H          2.43627596    1.02313900   -1.40949404
