26
wb97x-d4 ma-def2-tzvp(-f) cpcm(dmso) E: -726.357336721361, G: -726.18172218
 C         -1.33796799   -0.31612599   -0.13557599
 C         -0.17625199   -0.99936002   -0.76890099
 O         -0.98181301    0.89586598    0.57209098
 C         -2.06000710   -1.20932305    0.88067597
 H         -2.05468893   -0.03593300   -0.91548002
 C          0.38841301    1.20528400    0.65041697
 C          1.22875595   -0.01601200    1.01112700
 H          0.46165001    1.96273398    1.43870604
 O          0.90372598    1.71609497   -0.55341297
 C          1.15959203   -1.04636097   -0.11503500
 H          0.81300098   -0.45084500    1.92256403
 O          2.56234193    0.35346600    1.32208002
 O          1.48413706   -2.32796597    0.45822501
 H          1.91509497   -0.78995401   -0.86679399
 O         -0.16229101   -1.23845196   -2.11292791
 H         -1.37555695   -1.47446799    1.69365895
 O         -2.59339905   -2.37063503    0.25868699
 H         -2.90307999   -0.65832299    1.30164504
 H         -1.85295999   -2.92773294   -0.01244500
 H         -1.05129397   -1.13159502   -2.47763300
 H          1.56657600   -2.95994306   -0.26596999
 C          0.38083699    2.99869299   -0.89035600
 H          0.54896498    3.70856190   -0.07256500
 H         -0.68962401    2.94007206   -1.10533094
 H          0.91260499    3.33487797   -1.78016400
 H          2.91324091    0.83737999    0.56271303
