26
wb97x-d4 ma-def2-tzvp(-f) cpcm(dmso) E: -726.36480060867, G: -726.18755705
 C         -1.10699701   -0.49328899   -0.15164700
 C         -0.04325200   -1.53519499   -0.28875101
 O         -0.73494703    0.46868700    0.84187901
 C         -2.44148993   -1.07022297    0.29553699
 H         -1.25927496    0.02618400   -1.11126697
 C          0.54214901    1.03688800    0.65743399
 C          1.63559103   -0.02789900    0.74865198
 H          0.64946902    1.76590395    1.46835494
 O          0.68094999    1.66365695   -0.58713800
 C          1.39505303   -1.12538803   -0.28636500
 H          1.58924699   -0.46690500    1.74886405
 O          2.92020106    0.55650002    0.62283200
 O          2.24451900   -2.25960207   -0.09979300
 H          1.67396605   -0.73878199   -1.27724898
 O         -0.38003600   -2.57848692   -1.10142004
 H         -2.76813889   -1.82536495   -0.42004201
 O         -3.45413995   -0.07157000    0.33650699
 H         -2.31790304   -1.54268098    1.27705598
 H         -3.17249107    0.60235101    0.96719098
 H          0.41005999   -3.12574100   -1.22811401
 H          2.05989909   -2.63071609    0.77402502
 C         -0.11306800    2.84187388   -0.71815300
 H         -1.17907095    2.59894300   -0.69013101
 H          0.13466001    3.28408408   -1.68264401
 H          0.12052800    3.55067301    0.08366100
 H          2.91451502    1.09609795   -0.17927900
