26
wb97x-d4 ma-def2-tzvp(-f) cpcm(dmso) E: -726.357744732837, G: -726.18111908
 C         -1.43213797   -0.25455600   -0.09675300
 C         -0.34878600   -1.05740297   -0.73093599
 O         -0.97632802    0.93917501    0.57468700
 C         -2.21893597   -1.04671597    0.95766699
 H         -2.12789989    0.05052800   -0.88557702
 C          0.40696099    1.18984902    0.59721100
 C          1.20461905   -0.07330400    0.90027303
 H          0.54718298    1.93041801    1.39289403
 O          0.88994902    1.70128405   -0.62009698
 C          1.05382502   -1.06396794   -0.25092700
 H          0.80620497   -0.51626801    1.81540000
 O          2.56891203    0.21833199    1.15975702
 O          1.45045698   -2.39172697    0.13468499
 H          1.70706499   -0.73473799   -1.07183099
 O         -0.63296002   -1.51322901   -1.98567998
 H         -1.54439294   -1.34950101    1.76647794
 O         -2.87591290   -2.17067289    0.38698301
 H         -2.99697709   -0.40351701    1.37395895
 H         -2.20097208   -2.80845690    0.12390500
 H          0.11280300   -2.03221798   -2.31764102
 H          2.41041994   -2.38326001    0.24128200
 C          0.40738201    3.01228309   -0.90499598
 H         -0.67450798    3.00398207   -1.06278706
 H          0.90546101    3.34400797   -1.81578004
 H          0.64964998    3.69668198   -0.08409500
 H          2.90892196    0.71299499    0.40192300
