26
wb97x-d4 ma-def2-tzvp(-f) cpcm(dmso) E: -726.364814021541, G: -726.18750954
 C         -1.11045301   -0.49263600   -0.11131100
 C         -0.05264000   -1.54112101   -0.25377899
 O         -0.71175700    0.48513001    0.85643703
 C         -2.43599296   -1.05814803    0.37516001
 H         -1.28151596    0.00955800   -1.07657397
 C          0.56089598    1.04781997    0.62551600
 C          1.65434897   -0.01802700    0.70884901
 H          0.69302100    1.79319501    1.41754401
 O          0.66647899    1.64888799   -0.63550001
 C          1.38550699   -1.13021100   -0.30315599
 H          1.63012898   -0.44092399    1.71664095
 O          2.93720889    0.56129497    0.54371297
 O          2.24151111   -2.26104498   -0.12946400
 H          1.63007796   -0.75604898   -1.30765402
 O         -0.41080001   -2.59982109   -1.03730202
 H         -2.78050900   -1.82354295   -0.32067901
 O         -3.44499207   -0.05560100    0.42352200
 H         -2.29165196   -1.51530302    1.36102903
 H         -3.14584589    0.62635797    1.03731096
 H          0.37740201   -3.14790010   -1.17315805
 H          2.08894300   -2.61743402    0.75660002
 C         -0.13156800    2.82491207   -0.76675898
 H          0.08107100    3.24347210   -1.74990904
 H          0.13109601    3.55253911    0.00858700
 H         -1.19573200    2.58385992   -0.69434202
 H          2.91577005    1.08073795   -0.27132201
