26
wb97x-d4 ma-def2-tzvp(-f) cpcm(dmso) E: -726.364675890208, G: -726.18712822
 C         -1.21016395   -0.29746601   -0.16619800
 C         -0.29505399   -1.46077394   -0.33399701
 O         -0.72160101    0.57567298    0.89058697
 C         -2.62463593   -0.67888099    0.24852000
 H         -1.23624599    0.27300099   -1.09975803
 C          0.60278302    1.01482797    0.69507402
 C          1.57645297   -0.16122100    0.56666303
 H          0.84236097    1.60950196    1.58415198
 O          0.75074297    1.79409206   -0.46236199
 C          1.13621604   -1.09356797   -0.57040501
 H          1.55644405   -0.72299200    1.50398600
 O          2.91105199    0.28409600    0.38926101
 O          1.91742301   -2.28078198   -0.59149098
 H          1.22384906   -0.55237401   -1.52035499
 O         -0.52424997   -2.52370000    0.49514699
 H         -2.60286689   -1.15070796    1.23561299
 O         -3.24148798   -1.52701795   -0.71219498
 H         -3.23090792    0.22613400    0.31093499
 H         -2.81218004   -2.38981700   -0.66628200
 H          0.26112500   -3.09323001    0.46358100
 H          2.84193993   -2.02761889   -0.47317401
 C          0.11063500    3.06569290   -0.37387401
 H         -0.97471899    2.95257711   -0.30223200
 H          0.36069101    3.61019492   -1.28401005
 H          0.47735399    3.61818790    0.49832699
 H          2.90504193    0.93616903   -0.32551399
