26
wb97x-d4 ma-def2-tzvp(-f) cpcm(dmso) E: -726.365003242468, G: -726.18688336
 C         -1.19208395   -0.36646700   -0.33922899
 C         -0.23923300   -1.51330996   -0.32402000
 O         -0.82522899    0.60036898    0.68473297
 C         -2.65307999   -0.72789299   -0.12247700
 H         -1.11622798    0.12595400   -1.31512702
 C          0.50284398    1.05607796    0.58718401
 C          1.50650096   -0.09903000    0.65162200
 H          0.64014900    1.72551703    1.44420695
 O          0.75780702    1.74579895   -0.60899299
 C          1.20135105   -1.12527394   -0.44795099
 H          1.40074503   -0.58884299    1.62301195
 O          2.84345102    0.36562499    0.57385302
 O          2.00267291   -2.28983307   -0.30142200
 H          1.37287104   -0.65517300   -1.42380297
 O         -0.51787901   -2.52466297    0.55593002
 H         -3.25363898    0.17828199   -0.22113401
 O         -2.94570589   -1.26334703    1.16248202
 H         -2.94844794   -1.42398596   -0.91701901
 H         -2.36798811   -2.02523088    1.29810202
 H          0.28332499   -3.06455588    0.65163499
 H          2.90317297   -2.00504994   -0.09886400
 C          0.06366600    2.98749900   -0.70582700
 H         -1.01593602    2.82683206   -0.77299899
 H          0.41647300    3.47716689   -1.61314797
 H          0.28384599    3.61819601    0.16266599
 H          2.89657593    0.96534002   -0.18341400
