55
wb97x-d4 ma-def2-tzvp(-f) cpcm(dmso) E: -1285.247291671102, G: -1284.82644695
 C         -2.37446308   -2.12702203   -0.22421800
 C         -0.93278903   -1.63530695   -0.01996700
 O         -0.41986200   -1.97684395    1.23882306
 C         -0.80750102   -0.14884500   -0.36578301
 C         -1.38404095    0.13138300   -1.74913096
 C         -2.81933093   -0.40480199   -1.82604003
 C         -3.43243790   -0.26202700   -3.20696092
 O         -2.68424201   -0.94034499   -4.21237183
 O         -2.82301211   -1.80441904   -1.52690494
 O         -1.33413506    1.51727200   -2.04082894
 O         -3.19483089   -1.59266901    0.76953900
 H         -3.44608593    0.13732500   -1.10874200
 H         -2.39474297   -3.22249198   -0.18389300
 H         -0.78091198   -0.38361701   -2.50006104
 C         -4.49630117   -2.17423391    0.79314798
 H         -0.86258698   -1.47637796    1.96751595
 H         -4.46153307   -0.63709199   -3.17403793
 H         -3.45453811    0.79202503   -3.48455191
 H         -1.55846202    1.97916698   -1.22003603
 H         -2.65584493   -1.87432301   -3.97140408
 H         -5.01008415   -1.76395702    1.66201103
 H         -4.42840099   -3.26399589    0.88803703
 H         -5.05589104   -1.92486703   -0.11283100
 H         -0.33485901   -2.17382407   -0.76205498
 O         -1.32485402    0.75525200    0.53617102
 H          0.34149501    0.04577900   -0.44595000
 H         -0.83096403    0.74361402    1.42450202
 C          3.78430510    0.99892497   -1.81820297
 C          2.38588691    0.31689799   -1.76770902
 C          4.17834520    1.40563905   -0.39385200
 C          4.05128622    0.18289900    0.52220100
 C          2.54834700   -0.21219100    0.61028397
 N          1.85211003    0.55658698   -0.42510301
 H          3.74576092    1.87683594   -2.46609592
 H          1.69598806    0.74450302   -2.49451900
 H          5.20324278    1.78050101   -0.38073000
 H          4.63225794   -0.65072101    0.12270500
 H          2.10364294    0.05069900    1.56915605
 H          4.50868797    0.29789400   -2.23587990
 H          2.44791007   -0.76081300   -1.91404104
 C          3.21371293    2.49167991    0.09560400
 H          4.42061996    0.40761399    1.52415597
 H          2.39036989   -1.27172899    0.41527101
 C          1.75615203    1.98005998   -0.09982900
 H          3.34608102    3.41385698   -0.47245100
 H          3.39315009    2.71079993    1.14996600
 H          1.25433099    2.47693706   -0.92868698
 H          1.16097903    2.08495498    0.80600202
 O         -0.06441400    0.98473901    2.76147389
 O         -1.15389299   -0.80282199    3.53429008
 C          0.03474700    0.54957598    5.10450792
 C         -0.44205999    0.21995901    3.70024896
 H          0.17565300    1.62372303    5.22786188
 H          1.00104594    0.05947400    5.25887680
 H         -0.66303599    0.16876200    5.85051298
