55
wb97x-d4 ma-def2-tzvp(-f) cpcm(dmso) E: -1285.246762213189, G: -1284.8263745600002
 C         -2.07385993   -2.64126992   -0.58301699
 C         -0.62611699   -2.14774203   -0.44313401
 O          0.10639700   -2.92618299    0.48024401
 C         -0.57410997   -0.66244900   -0.09963700
 C         -1.41915202    0.14636500   -1.08617997
 C         -2.84117103   -0.43041199   -1.10960102
 C         -3.73688006    0.24027400   -2.13422799
 O         -3.22583699    0.13459501   -3.46017098
 O         -2.78833890   -1.81468999   -1.47748804
 O         -1.40207505    1.52718997   -0.82732701
 O         -2.66245198   -2.69892597    0.68206000
 H         -3.29863310   -0.32082501   -0.11947900
 H         -2.08251309   -3.63393903   -1.04800105
 H         -0.98539901    0.00245200   -2.08032703
 C         -3.91394401   -3.38242698    0.68549502
 H         -0.22457200   -2.69719100    1.35937500
 H         -4.73621607   -0.20524400   -2.07097912
 H         -3.81361103    1.30359602   -1.90714800
 H         -1.82218301    1.73591006    0.04564500
 H         -3.13672400   -0.80508298   -3.66073608
 H         -3.80156302   -4.39102077    0.27188301
 H         -4.66280699   -2.83466792    0.10666800
 H         -4.23532295   -3.44827294    1.72450805
 H         -0.15740100   -2.28693604   -1.42025995
 O         -0.85439003   -0.47416100    1.23741198
 H          0.52607298   -0.34338000   -0.28329501
 H         -0.70650101    0.47978699    1.53689802
 C          3.63173199    1.88085401   -0.81107700
 C          2.12282109    1.51093900   -0.70218700
 C          4.45269823    0.77570301   -0.13685299
 C          4.29815102   -0.51673502   -0.94622600
 C          2.77860498   -0.80127901   -1.12991595
 N          2.07096696    0.12230800   -0.24155299
 H          3.79882407    2.84222293   -0.32278001
 H          1.59747899    2.12292290    0.02962000
 H          5.50395393    1.06495905   -0.08928400
 H          4.76471186   -0.41901201   -1.92765903
 H          2.51672101   -1.82002997   -0.84672397
 H          3.91558909    1.97664595   -1.86091995
 H          1.61316800    1.57538295   -1.66245997
 C          3.90490699    0.54645401    1.27666605
 H          4.77091599   -1.35067296   -0.42389300
 H          2.44299793   -0.60670102   -2.14787412
 C          2.45913291   -0.02413100    1.15992200
 H          3.88933802    1.48557901    1.83291805
 H          4.52473021   -0.16535200    1.82403600
 H          1.74965596    0.52944303    1.77367401
 H          2.41300893   -1.08317101    1.41062999
 O         -2.40626311    2.46711111    1.47137105
 O         -0.42454401    1.84708595    2.28678894
 C         -1.45726705    3.77712703    3.23244309
 C         -1.43739700    2.60690498    2.26382709
 H         -0.95532000    3.51770210    4.16524220
 H         -2.47832704    4.10445309    3.42853999
 H         -0.91169399    4.60793877    2.77454901
