55
wb97x-d4 ma-def2-tzvp(-f) cpcm(dmso) E: -1285.241286710906, G: -1284.8206364300001
 C         -2.11254811   -2.28874493    0.28276399
 C         -0.59824997   -2.01703811    0.30874899
 O         -0.01056300   -2.49662399    1.49991095
 C         -0.30377001   -0.53520900    0.07936700
 C         -1.02562702   -0.04371400   -1.17652297
 C         -2.52648997   -0.33266899   -1.02907801
 C         -3.34140897    0.11704600   -2.22025800
 O         -2.80732608   -0.45195699   -3.41439700
 O         -2.70363593   -1.74643803   -0.87798399
 O         -0.73738801    1.29885304   -1.49726903
 O         -2.67785811   -1.78805804    1.45968604
 H         -2.92357492    0.18206599   -0.14766100
 H         -2.29031205   -3.36811495    0.21103901
 H         -0.65894699   -0.64941400   -2.00918603
 C         -4.03251886   -2.19225407    1.64474106
 H         -0.38922599   -1.98029804    2.22418904
 H         -4.37897682   -0.20160601   -2.07080889
 H         -3.31336308    1.21018803   -2.26418591
 H         -1.06132996    1.88421297   -0.77437502
 H         -3.35453391   -0.15901799   -4.15098476
 H         -4.12085009   -3.28234196    1.57407105
 H         -4.68620777   -1.72740805    0.90150303
 H         -4.32680893   -1.86594105    2.64178610
 H         -0.16027600   -2.58510995   -0.51461101
 O         -0.50761199    0.18128601    1.24426901
 H          0.82432801   -0.46691799   -0.17053600
 H         -0.84309900    1.11024702    1.08215797
 C          3.89811993    1.73590600    0.45124701
 C          2.40075994    1.33859706    0.28652701
 C          4.75798178    0.68287402   -0.25719100
 C          4.24494886    0.50522298   -1.69149303
 C          2.81201506   -0.10534400   -1.63276696
 N          2.39142990   -0.02612700   -0.23436700
 H          4.15671206    1.78581297    1.51069903
 H          1.86418998    1.34825599    1.23495102
 H          5.80264378    0.99849099   -0.26925701
 H          4.21632385    1.46821201   -2.20495701
 H          2.79986095   -1.15397501   -1.92776895
 H          4.05219984    2.72397494    0.01470600
 H          1.88238895    1.97277403   -0.43079999
 C          4.61679792   -0.64850098    0.48819399
 H          4.89472198   -0.16474700   -2.25660491
 H          2.10160589    0.45481199   -2.23945308
 C          3.09980011   -0.97165298    0.62877297
 H          5.06273794   -0.58797503    1.48216999
 H          5.11646891   -1.44729996   -0.06318700
 H          2.73948312   -0.82698399    1.64634299
 H          2.86356592   -1.98237097    0.29863900
 O         -3.42574310    3.53285909    0.35212001
 O         -1.45468497    2.56159806    0.74101502
 C         -3.20143795    2.17380691    2.31430793
 C         -2.67838502    2.81680799    1.03795505
 H         -2.54840994    2.43119311    3.15147805
 H         -3.17712998    1.08602297    2.20361805
 H         -4.22079182    2.49273491    2.52872896
