55
wb97x-d4 ma-def2-tzvp(-f) cpcm(dmso) E: -1285.24294150337, G: -1284.8206178700002
 C         -2.43396306    1.27949905   -0.95135802
 C         -0.94429100    0.92558300   -1.05795896
 O         -0.64619201    0.16153800   -2.19952393
 C         -0.43592599    0.32592499    0.25641301
 C         -0.76459199    1.26513600    1.41127598
 C         -2.27231789    1.55522501    1.41835403
 C         -2.66143799    2.57485294    2.48205996
 O         -2.55086207    2.04910302    3.79998112
 O         -2.65162611    2.12571812    0.16552100
 O         -0.33739701    0.71386498    2.65236092
 O         -3.18074393    0.10523200   -0.89075202
 H         -2.81859303    0.62143302    1.59255600
 H         -2.73255610    1.87934005   -1.81874204
 H         -0.22630100    2.20764399    1.28034699
 C         -4.58059502    0.31331500   -1.05489099
 H         -0.97433001   -0.76112098   -2.07831597
 H         -2.04297900    3.47428608    2.36589289
 H         -3.70603108    2.85537505    2.33290911
 H         -0.58235198   -0.22308201    2.64421797
 H         -1.68583798    1.61692595    3.85618901
 H         -4.99412107    0.88955998   -0.22242300
 H         -5.04414415   -0.67249900   -1.08030903
 H         -4.78299522    0.83771700   -1.99571705
 H         -0.42197001    1.88031197   -1.17266202
 O         -0.83936298   -0.94969398    0.59492701
 H          0.72107100    0.31959799    0.15733799
 H         -0.98942399   -1.54117703   -0.20531900
 C          4.34511805   -0.03884400   -1.11660898
 C          2.80381393    0.17938399   -1.17760003
 C          4.69926691   -0.61423397    0.25939500
 C          3.83665609   -1.85399997    0.51985103
 C          2.34679008   -1.40660203    0.61543602
 N          2.30313897   -0.01211400    0.18408900
 H          4.86063480    0.91061598   -1.27371204
 H          2.54361200    1.18654895   -1.50136805
 H          5.75692320   -0.88152701    0.29289800
 H          3.95496607   -2.57564807   -0.29068601
 H          1.96842694   -1.45343995    1.63567805
 H          4.63988781   -0.72414398   -1.91281903
 H          2.30991697   -0.54767400   -1.81993198
 C          4.38873196    0.43830100    1.32955098
 H          4.12441111   -2.33798409    1.45429897
 H          1.69984603   -1.99091995   -0.03777200
 C          2.91216803    0.90307498    1.15093994
 H          5.04928017    1.30081797    1.22862101
 H          4.52586412    0.01677400    2.32720089
 H          2.84542894    1.91160500    0.74432999
 H          2.34732795    0.84502798    2.07996607
 O         -1.26637995   -2.34825611   -1.54499197
 O         -3.07131004   -3.37150407   -0.71841699
 C         -3.10990310   -2.67527890   -3.01238704
 C         -2.45610309   -2.82321501   -1.64750803
 H         -4.06412888   -3.19961190   -3.05526495
 H         -2.44205809   -3.05490899   -3.78895593
 H         -3.27245998   -1.61186099   -3.20660591
