55
wb97x-d4 ma-def2-tzvp(-f) cpcm(dmso) E: -1285.242168308434, G: -1284.8205971700002
 C         -2.09184289   -1.93027794   -0.73883998
 C         -0.57487202   -1.70541203   -0.62529498
 O          0.05809400   -2.75746608    0.07146500
 C         -0.26772001   -0.34414199    0.00516300
 C         -1.03601503    0.76883501   -0.71208799
 C         -2.52880907    0.41802099   -0.74017298
 C         -3.34211898    1.42594600   -1.52771795
 O         -4.72644806    1.09034002   -1.53153896
 O         -2.69379091   -0.83910000   -1.40693903
 O         -0.77718300    2.05393910   -0.19192000
 O         -2.61963391   -2.13629007    0.53669000
 H         -2.92494607    0.34643400    0.27724001
 H         -2.29119110   -2.79846406   -1.37767100
 H         -0.68504500    0.77341998   -1.74964499
 C         -3.98252511   -2.55699205    0.51585197
 H         -0.23600100   -2.69823790    0.99074900
 H         -3.25305009    2.40772295   -1.06348503
 H         -2.95424891    1.48461998   -2.55249310
 H         -1.11204195    2.09818292    0.73130399
 H         -4.80419779    0.20129099   -1.89948297
 H         -4.09689999   -3.45648503   -0.09926300
 H         -4.63107491   -1.76684999    0.12735701
 H         -4.25925922   -2.78035808    1.54564202
 H         -0.18143301   -1.71321499   -1.64435995
 O         -0.38077399   -0.40953800    1.37781405
 H          0.85091799   -0.15072399   -0.23553400
 H         -0.81642801    0.40088201    1.78416896
 C          4.47359514   -0.62807602   -1.45316803
 C          2.92552590   -0.78735399   -1.42189097
 C          4.84730005    0.63204998   -0.66590703
 C          4.48184299    0.42450899    0.80846697
 C          2.98877096   -0.01241100    0.88985503
 N          2.42295003    0.18132600   -0.44465101
 H          4.80399418   -0.54957998   -2.49010801
 H          2.46957397   -0.55738401   -2.38408208
 H          5.91606188    0.83101600   -0.76194000
 H          5.10479116   -0.35014099    1.25841701
 H          2.42049003    0.59396100    1.59470499
 H          4.94583702   -1.50651705   -1.00913203
 H          2.62381697   -1.78468299   -1.10430300
 C          4.03991222    1.81439996   -1.21177995
 H          4.62854004    1.35000002    1.36853194
 H          2.88171291   -1.06535006    1.14871001
 C          2.53218293    1.56497002   -0.91136998
 H          4.19251919    1.91139495   -2.28842592
 H          4.34873581    2.74720192   -0.73739398
 H          1.91272795    1.67808402   -1.80010104
 H          2.15517306    2.21382403   -0.12313100
 O         -3.54416895    2.56118488    2.83648705
 O         -1.55134797    1.68719006    2.34655190
 C         -3.16481709    0.25472000    3.36269689
 C         -2.74722290    1.60978103    2.80917907
 H         -2.59937191    0.05837000    4.27812004
 H         -2.92030501   -0.53495598    2.64920807
 H         -4.23028088    0.23639201    3.58945799
