55
wb97x-d4 ma-def2-tzvp(-f) cpcm(dmso) E: -1285.241869652, G: -1284.8205517200001
 C         -2.08788300   -2.88019896   -0.34591901
 C         -0.63754600   -2.37701893   -0.22197300
 O          0.05633400   -3.07400894    0.79052901
 C         -0.59184599   -0.86203301   -0.02311200
 C         -1.41918099   -0.18325600   -1.11657000
 C         -2.85368299   -0.72161102   -1.03592801
 C         -3.78553104   -0.08291400   -2.04990792
 O         -3.28855205   -0.11944400   -3.38544893
 O         -2.81397796   -2.13051391   -1.29458594
 O         -1.34849596    1.22554004   -1.11752796
 O         -2.67679310   -2.85636592    0.92270702
 H         -3.26805091   -0.53858101   -0.03765400
 H         -2.08456993   -3.90394902   -0.73744202
 H         -1.00232899   -0.51260900   -2.07287097
 C         -3.90607405   -3.57728410    0.97960800
 H         -0.40766001   -2.89682698    1.61981905
 H         -4.72804117   -0.63448000   -2.04966688
 H         -3.98794389    0.94602603   -1.74084604
 H         -1.57369101    1.58193505   -0.22728799
 H         -2.63212299    0.58061099   -3.47789693
 H         -3.75982404   -4.61058617    0.64533699
 H         -4.67007113   -3.10044694    0.35933301
 H         -4.22847605   -3.57271194    2.02032709
 H         -0.14019699   -2.60934591   -1.16606700
 O         -0.89488399   -0.54379499    1.28487599
 H          0.51080501   -0.54191500   -0.21867700
 H         -1.17445397    0.41340500    1.39763904
 C          3.17016292    2.06743789    0.64027900
 C          1.78354096    1.36128402    0.57533801
 C          4.23822784    1.08654904    0.14507300
 C          3.97282910    0.75832498   -1.32845902
 C          2.50619102    0.25075400   -1.47184396
 N          1.99001503    0.08719000   -0.11228400
 H          3.37156105    2.37144899    1.66868699
 H          1.38407004    1.14903200    1.56547999
 H          5.23084879    1.52683198    0.25521600
 H          4.10749817    1.64389598   -1.95153797
 H          2.45320797   -0.71231699   -1.97813404
 H          3.15683794    2.96271896    0.01577700
 H          1.05715704    1.93858802    0.00632600
 C          4.14089489   -0.20233500    0.96887797
 H          4.66521311   -0.01139900   -1.67435098
 H          1.87039804    0.97039700   -1.98599005
 C          2.76202512   -0.86778003    0.68300903
 H          4.23057699    0.02137300    2.03353000
 H          4.93689919   -0.89747500    0.69739699
 H          2.20759010   -1.07563901    1.59718895
 H          2.86034608   -1.78383994    0.10248300
 O         -0.31962100    2.53104496    3.07971907
 O         -1.70506406    1.92453003    1.43813503
 C         -0.93211401    4.17462397    1.44520700
 C         -0.97669899    2.78267598    2.05589700
 H         -1.94577396    4.53229380    1.25281501
 H         -0.41590101    4.11700392    0.48234600
 H         -0.40618101    4.87516212    2.09302092
