55
wb97x-d4 ma-def2-tzvp(-f) cpcm(dmso) E: -1285.242028012965, G: -1284.8205205900001
 C         -2.12155104   -2.87727404   -0.24298100
 C         -0.66555399   -2.39036989   -0.11601700
 O          0.00483400   -3.05289888    0.93512201
 C         -0.60078901   -0.87033701    0.02373400
 C         -1.40426803   -0.21891101   -1.10344505
 C         -2.84705400   -0.73294598   -1.02024198
 C         -3.76180792   -0.11758300   -2.06353307
 O         -3.25787592   -0.20999700   -3.39389801
 O         -2.82277107   -2.15093398   -1.22875297
 O         -1.30675697    1.18770695   -1.14874005
 O         -2.72874594   -2.80069590    1.01465797
 H         -3.26816797   -0.50945401   -0.03306900
 H         -2.12826991   -3.91397905   -0.59858698
 H         -0.98193800   -0.58724201   -2.04308701
 C         -3.96617699   -3.50667691    1.07971799
 H         -0.46107399   -2.82455492    1.75071895
 H         -4.71303320   -0.65383899   -2.04958296
 H         -3.94994807    0.92494798   -1.79316604
 H         -1.53164995    1.57817805   -0.27297699
 H         -2.59010911    0.47597501   -3.50770593
 H         -4.30229187   -3.46292090    2.11519694
 H         -3.82641602   -4.55237103    0.78334701
 H         -4.71695423   -3.04412508    0.43303999
 H         -0.15740199   -2.66768789   -1.04195499
 O         -0.92139900   -0.49933499    1.31428301
 H          0.50350398   -0.57042700   -0.17328800
 H         -1.17391896    0.46928599    1.38678503
 C          3.29025412    1.67269599    1.13987005
 C          1.85444200    1.14488196    0.85344303
 C          4.23896313    1.07315898    0.09547400
 C          3.66729307    1.33631802   -1.30332899
 C          2.33675599    0.53856403   -1.45372105
 N          1.99355698    0.05924400   -0.11424700
 H          3.60136795    1.38297606    2.14542389
 H          1.37087703    0.75562602    1.74803102
 H          5.22967005    1.52181101    0.18611100
 H          3.47622299    2.40270090   -1.43859196
 H          2.44913006   -0.32952201   -2.10213399
 H          3.28484392    2.76241708    1.08410299
 H          1.22137201    1.90758300    0.40312901
 C          4.32249784   -0.44101101    0.31928000
 H          4.36632776    1.01367903   -2.07638597
 H          1.52119398    1.16363299   -1.81504798
 C          2.87444401   -1.01315200    0.34997299
 H          4.81598711   -0.66788799    1.26565695
 H          4.89083719   -0.91281497   -0.48462600
 H          2.56145501   -1.28942597    1.35589194
 H          2.75549102   -1.86780798   -0.31496000
 O         -1.68168402    1.98699200    1.37747598
 O         -0.32229999    2.63156891    3.02645397
 C         -0.88008499    4.22679281    1.32624698
 C         -0.95471799    2.85621810    1.98145700
 H         -1.88424802    4.58626890    1.09220195
 H         -0.33590800    4.13286591    0.38162899
 H         -0.36645499    4.94409323    1.96561301
