55
wb97x-d4 ma-def2-tzvp(-f) cpcm(dmso) E: -1285.243400343662, G: -1284.8205149
 C         -2.13274789    2.23887300   -0.11485600
 C         -0.60564899    2.05565596   -0.19112000
 O         -0.07377200    2.63951111   -1.36094296
 C         -0.22894500    0.58199799   -0.05612800
 C         -0.88317603   -0.03294300    1.17954898
 C         -2.40001392    0.17638600    1.06110299
 C         -3.18178892   -0.42738399    2.21742797
 O         -4.49750900   -0.81298399    1.83146095
 O         -2.66177797    1.58532798    1.01919103
 O         -0.50408101   -1.37729704    1.37259400
 O         -2.69390893    1.78550506   -1.31274498
 H         -2.75468612   -0.27377701    0.13149400
 H         -2.36870790    3.29888797    0.03352400
 H         -0.53032303    0.52879697    2.05063105
 C         -4.07211590    2.12653399   -1.44997597
 H         -0.48689801    2.19141293   -2.11141992
 H         -2.63291907   -1.28797698    2.60750294
 H         -3.27638507    0.31408900    3.01402998
 H         -0.92517000   -1.93142903    0.67011601
 H         -4.38470697   -1.56397402    1.22201800
 H         -4.21479082    3.20513105   -1.31960905
 H         -4.68366623    1.58896601   -0.72029197
 H         -4.37017488    1.83708298   -2.45723391
 H         -0.17852899    2.59443498    0.65725797
 O         -0.42866999   -0.09006200   -1.25026596
 H          0.91606998    0.55426800    0.15929900
 H         -0.78733099   -1.00062394   -1.11925697
 C          4.25208616   -0.55089402    1.69600403
 C          2.80876803    0.03262800    1.65699196
 C          4.84276104   -0.48312199    0.28223699
 C          4.69207191    0.94593799   -0.25050399
 C          3.17526603    1.24540401   -0.42809001
 N          2.45350194    0.16037200    0.24190301
 H          4.22451878   -1.58514702    2.04463911
 H          2.08594394   -0.62688297    2.13508391
 H          5.89587688   -0.76854300    0.30153999
 H          5.13250303    1.66015303    0.44806901
 H          2.87505388    1.24734294   -1.47535098
 H          4.85289192    0.03029400    2.39719009
 H          2.75404692    1.02363896    2.10600901
 C          4.05497980   -1.43125105   -0.62891698
 H          5.19323778    1.05695403   -1.21341395
 H          2.88488793    2.18810701    0.03415200
 C          2.54011512   -1.11051404   -0.47667301
 H          4.22667694   -2.47245789   -0.35131201
 H          4.36255693   -1.29906404   -1.66808403
 H          2.01479197   -1.85998499    0.11314700
 H          2.04359698   -0.99604797   -1.43976796
 O         -1.56367195   -2.50403309   -0.79210401
 O         -3.56071496   -2.90906000    0.11809300
 C         -3.47851491   -2.29771590   -2.19508505
 C         -2.83557606   -2.60923004   -0.85449100
 H         -2.87628388   -2.69475389   -3.01356912
 H         -3.51441097   -1.20871997   -2.30503702
 H         -4.49458313   -2.68782091   -2.24601793
