55
wb97x-d4 ma-def2-tzvp(-f) cpcm(dmso) E: -1285.24671570639, G: -1284.82375892
 C         -2.04740691   -2.60110497   -0.67221802
 C         -0.59246302   -2.12980890   -0.51781398
 O          0.13722999   -2.96780896    0.35493001
 C         -0.52363098   -0.66593897   -0.09443300
 C         -1.37939501    0.20214599   -1.01970994
 C         -2.80660200   -0.35940701   -1.03982604
 C         -3.72969794    0.38901401   -1.98216796
 O         -3.24970102    0.41060200   -3.32335901
 O         -2.76796699   -1.71536005   -1.50360203
 O         -1.33043897    1.56640601   -0.68887001
 O         -2.62114191   -2.73295403    0.59452099
 H         -3.23416495   -0.31968600   -0.03141200
 H         -2.07020211   -3.56306911   -1.19729805
 H         -0.97022998    0.10169600   -2.02920294
 C         -3.88660598   -3.38986897    0.56899703
 H         -0.19771700   -2.79966092    1.24609303
 H         -4.72357988   -0.07063500   -1.93640304
 H         -3.81093597    1.42669797   -1.65816998
 H         -1.78620505    1.73910403    0.17611900
 H         -3.17909908   -0.50435299   -3.62127209
 H         -4.18847895   -3.53491092    1.60581696
 H         -3.80429912   -4.36291599    0.07162400
 H         -4.63490391   -2.78170490    0.05324500
 H         -0.13198900   -2.21927595   -1.50447404
 O         -0.78077197   -0.54980898    1.25581706
 H          0.56948698   -0.32932499   -0.28392100
 H         -0.68374801    0.39238000    1.59781206
 C          3.70160508    1.71449101   -1.21964705
 C          2.19041705    1.36320603   -1.08612502
 C          4.49444103    0.81745100   -0.26246399
 C          4.37582493   -0.63489902   -0.73741901
 C          2.86524010   -0.97634101   -0.90511400
 N          2.12129211    0.12991500   -0.30115700
 H          3.84478498    2.76813197   -0.97494900
 H          1.63373995    2.13028693   -0.55081803
 H          5.54233503    1.12179303   -0.24369900
 H          4.88148212   -0.77302498   -1.69437003
 H          2.59066796   -1.89565396   -0.39010200
 H          4.03061104    1.55352604   -2.24805188
 H          1.72330904    1.18321097   -2.05381894
 C          3.88806295    0.93320602    1.14132500
 H          4.82954407   -1.31078899   -0.00998400
 H          2.57317495   -1.04343200   -1.95256805
 C          2.44967198    0.33384100    1.10791898
 H          3.84595490    1.97932506    1.45049500
 H          4.48577881    0.38434899    1.87060595
 H          1.71275103    1.00869405    1.54215205
 H          2.39681196   -0.63350803    1.60620606
 O         -0.52065498    1.72756505    2.47676992
 O         -2.47319007    2.33842397    1.58593905
 C         -1.75228095    3.47994399    3.54907107
 C         -1.56849396    2.43652201    2.45938396
 H         -0.94935602    3.43659806    4.28427792
 H         -2.71412492    3.32398891    4.04281998
 H         -1.77474403    4.47273302    3.09249902
