55
wb97x-d4 ma-def2-tzvp(-f) cpcm(dmso) E: -1285.241843527443, G: -1284.82048215
 C         -1.99571395   -2.21988606   -0.47942501
 C         -0.50502300   -1.84549403   -0.45559299
 O          0.23911600   -2.71035004    0.37558901
 C         -0.31600001   -0.38062599   -0.05650800
 C         -1.18969095    0.51532400   -0.93561202
 C         -2.65086293    0.04474100   -0.87521702
 C         -3.54561710    0.81785500   -1.83804905
 O         -3.76916194    2.15660191   -1.41424799
 O         -2.71471000   -1.31921399   -1.29830098
 O         -1.04846001    1.89734399   -0.66037399
 O         -2.47482896   -2.25292110    0.83125401
 H         -3.04172301    0.14488700    0.14235000
 H         -2.12425089   -3.19818211   -0.95681202
 H         -0.84957600    0.37013701   -1.96616995
 C         -3.78632689   -2.80250812    0.93905300
 H         -0.04181400   -2.53384590    1.28385305
 H         -3.10269403    0.79167497   -2.84214306
 H         -4.51952219    0.32620201   -1.88017201
 H         -1.27917099    2.06620312    0.28410801
 H         -2.89438295    2.54647303   -1.27010798
 H         -4.02344418   -2.84084201    2.00176001
 H         -3.81561995   -3.81363201    0.51784903
 H         -4.51885319   -2.17385602    0.42543101
 H         -0.13205600   -1.98035896   -1.47335100
 O         -0.41703200   -0.23783100    1.31038296
 H          0.78027499   -0.13749000   -0.34932899
 H         -0.87193298    0.61407799    1.59294498
 C          4.46441603   -0.59326202   -1.37563097
 C          2.91752410   -0.75803101   -1.42963398
 C          4.78896904    0.66431302   -0.56237203
 C          4.35220003    0.44442499    0.89076698
 C          2.86476898   -0.01824700    0.89319098
 N          2.36191511    0.19188599   -0.46317300
 H          4.84994793   -0.50749099   -2.39273095
 H          2.51179290   -0.51285100   -2.41035199
 H          5.85944891    0.87240100   -0.60464501
 H          4.96330214   -0.32235500    1.36956704
 H          2.25257111    0.56550997    1.58013105
 H          4.91560221   -1.47246099   -0.91164303
 H          2.60360098   -1.76169801   -1.14516902
 C          3.99885798    1.84351099   -1.13979805
 H          4.45558119    1.36961806    1.46097100
 H          2.76238799   -1.07709897    1.12723505
 C          2.48209810    1.58417106   -0.90153199
 H          4.19450378    1.94244206   -2.20930195
 H          4.28251410    2.77765799   -0.65248197
 H          1.89635801    1.71054304   -1.81093502
 H          2.07274103    2.21721005   -0.11567100
 O         -3.54486394    2.98345208    2.34560704
 O         -1.60073805    1.97027898    1.93936205
 C         -3.25403309    0.74407601    3.14741397
 C         -2.79133105    2.00151491    2.42495203
 H         -2.65882301    0.61902601    4.05621910
 H         -3.08437490   -0.13519800    2.52163792
 H         -4.30785418    0.81217098    3.41485500
