55
wb97x-d4 ma-def2-tzvp(-f) cpcm(dmso) E: -1285.243609127131, G: -1284.82045663
 C         -2.10462499    2.39462900   -0.62830198
 C         -0.60930997    2.07364106   -0.80715197
 O         -0.19752200    2.25559998   -2.14538097
 C         -0.28959000    0.67729998   -0.28251499
 C         -0.83165503    0.49197900    1.13507104
 C         -2.34321499    0.75975299    1.10363305
 C         -3.04759598    0.63374102    2.45083904
 O         -3.20873189   -0.70556599    2.88262200
 O         -2.52812910    2.12097311    0.69045299
 O         -0.45598900   -0.74991101    1.68214703
 O         -2.82995701    1.67940402   -1.58498597
 H         -2.82974911    0.09069300    0.38689700
 H         -2.26602888    3.47060299   -0.75904900
 H         -0.37855801    1.26767504    1.76133502
 C         -4.18018389    2.12311792   -1.71022403
 H         -0.73301601    1.66145694   -2.68817902
 H         -2.47742605    1.16774797    3.21788597
 H         -4.02137613    1.13084900    2.34921193
 H         -0.95246601   -1.46612298    1.21641803
 H         -3.37256694   -1.28459799    2.10349202
 H         -4.74113703    1.93590903   -0.79056102
 H         -4.62379885    1.55746698   -2.52885509
 H         -4.21096706    3.19309497   -1.94393802
 H         -0.05638300    2.79516792   -0.20207199
 O         -0.65747601   -0.29012701   -1.20297396
 H          0.86966997    0.62412000   -0.16979501
 H         -0.92830098   -1.12955296   -0.76515502
 C          4.62457418    0.41018999   -0.92219698
 C          3.16617393    0.95719099   -0.96983403
 C          4.71982813   -0.63302898    0.19661000
 C          3.79852104   -1.80864096   -0.14378101
 C          2.35607696   -1.26245606   -0.36533099
 N          2.38592911    0.15904200   -0.02282300
 H          5.31280088    1.23674095   -0.73845899
 H          3.10793304    1.99911594   -0.65707201
 H          5.74940395   -0.98232502    0.29338399
 H          4.13766813   -2.31292605   -1.04987204
 H          1.62732804   -1.75051701    0.27923399
 H          4.88070488   -0.04115500   -1.88248301
 H          2.71873093    0.84824598   -1.95678496
 C          4.25697279    0.00236300    1.51250696
 H          3.79414606   -2.53531098    0.67086798
 H          2.03939891   -1.34957397   -1.40385795
 C          2.75814104    0.40237799    1.37257004
 H          4.85607815    0.88693202    1.73684704
 H          4.36572123   -0.70168602    2.33914804
 H          2.59350801    1.45742202    1.58919096
 H          2.10697389   -0.20408501    1.99925601
 O         -1.58135402   -2.52159190    0.04609200
 O         -3.68631196   -2.39457393    0.79180300
 C         -3.25090694   -3.71387100   -1.15494895
 C         -2.82288790   -2.80484605   -0.01571900
 H         -2.92962098   -3.28040409   -2.10501790
 H         -4.32998419   -3.86252499   -1.16197503
 H         -2.74946499   -4.67914486   -1.04822505
