55
wb97x-d4 ma-def2-tzvp(-f) cpcm(dmso) E: -1285.242925059506, G: -1284.8203436800002
 C         -2.04350805   -2.61573792   -1.29273605
 C         -0.62671101   -2.05847096   -1.06514204
 O          0.21388800   -3.01572704   -0.45755199
 C         -0.65980399   -0.74475801   -0.28302300
 C         -1.62075400    0.22144499   -0.97566903
 C         -3.00520611   -0.43897501   -1.04664302
 C         -4.02907610    0.44191700   -1.75200498
 O         -4.40646315    1.55797005   -0.95487100
 O         -2.89448094   -1.62715995   -1.83549595
 O         -1.66563702    1.52277696   -0.41633800
 O         -2.52299809   -3.13457799   -0.08784800
 H         -3.36272907   -0.67932302   -0.03950100
 H         -2.00811410   -3.40402603   -2.05323195
 H         -1.27076995    0.33863801   -2.00691891
 C         -3.71691895   -3.89919806   -0.24304700
 H         -0.14482901   -3.18718004    0.42352700
 H         -3.62348795    0.76792502   -2.71876311
 H         -4.93022680   -0.14560901   -1.93945599
 H         -1.57744205    1.49093199    0.56641799
 H         -3.57599401    1.97494495   -0.67662501
 H         -3.93672705   -4.34197617    0.72791201
 H         -3.57078791   -4.69339609   -0.98386502
 H         -4.55187798   -3.26429200   -0.55158299
 H         -0.20903200   -1.85251701   -2.05299592
 O         -0.87813097   -0.99357200    1.05640996
 H          0.40755400   -0.29141700   -0.39391500
 H         -1.05585206   -0.15029700    1.57554400
 C          4.19277191   -0.04742500   -0.99579400
 C          2.69972706   -0.37660900   -1.29363501
 C          4.24521494    0.99905002    0.12332300
 C          3.70194197    0.37432301    1.41338396
 C          2.30911493   -0.25500301    1.10892701
 N          1.91819704    0.22882700   -0.21361700
 H          4.66316319    0.33153000   -1.90445697
 H          2.36262798    0.05577200   -2.23498797
 H          5.27194214    1.33779597    0.27255601
 H          4.37125778   -0.40473399    1.78200901
 H          1.55842996    0.06002600    1.83316302
 H          4.71844816   -0.95431501   -0.69046402
 H          2.51044297   -1.44931400   -1.29533601
 C          3.35087395    2.18131900   -0.26497400
 H          3.60243893    1.13524795    2.19032907
 H          2.34984398   -1.34265900    1.06659698
 C          1.87417305    1.69012499   -0.29572800
 H          3.63529611    2.56514502   -1.24669194
 H          3.44155908    2.99273801    0.45899400
 H          1.36730897    1.96862102   -1.21861804
 H          1.30297399    2.05579710    0.55575001
 O          0.41009101    1.29960001    3.48528099
 O         -1.42710805    1.25745201    2.21671104
 C         -0.63959301    3.38316798    2.94119310
 C         -0.52612197    1.86803401    2.90031695
 H         -1.67938805    3.68581605    3.07521009
 H         -0.30171499    3.77710199    1.97728097
 H         -0.01779900    3.80423093    3.73069191
