55
wb97x-d4 ma-def2-tzvp(-f) cpcm(dmso) E: -1285.240768320712, G: -1284.82032438
 C         -2.12692308   -2.21691704   -0.13942300
 C         -0.60521197   -2.00791001   -0.05847900
 O         -0.02881800   -2.77312398    0.97946501
 C         -0.26297799   -0.52425098    0.07123700
 C         -0.97679198    0.28912100   -1.01184404
 C         -2.48446894    0.00702100   -0.94407898
 C         -3.24098611    0.73259002   -2.03268003
 O         -4.63970280    0.54074001   -1.82050705
 O         -2.68696189   -1.39700401   -1.14257002
 O         -0.64673799    1.66022301   -0.97087002
 O         -2.68364692   -1.98315704    1.12115502
 H         -2.88578510    0.30194700    0.03064600
 H         -2.34181404   -3.24242496   -0.46223399
 H         -0.62035298   -0.08979700   -1.97554803
 C         -4.06001091   -2.34715009    1.20033503
 H         -0.35815299   -2.40552807    1.81071699
 H         -2.98548388    1.79450297   -1.98875701
 H         -2.93813705    0.33529100   -3.00910306
 H         -0.98363602    2.04871798   -0.13065800
 H         -5.11222315    1.04407895   -2.49258494
 H         -4.35909224   -2.22573304    2.24098110
 H         -4.19934607   -3.39107800    0.89716798
 H         -4.67406416   -1.70133400    0.56680697
 H         -0.18784299   -2.37735391   -0.99775302
 O         -0.42214099   -0.10673500    1.38041604
 H          0.85830402   -0.43227300   -0.18624200
 H         -0.76599997    0.83000201    1.45706701
 C          4.69262791   -0.79085797    0.01140300
 C          3.19376707   -1.21633601   -0.01383200
 C          4.80300093    0.62529498   -0.56400597
 C          4.07311296    1.59716797    0.37128100
 C          2.62034893    1.07354999    0.59400898
 N          2.42897391   -0.01807200   -0.35640699
 H          5.27447987   -1.49813294   -0.58146697
 H          2.99265409   -1.97061598   -0.77362800
 H          5.85209417    0.91212398   -0.65533501
 H          4.58015680    1.66273701    1.33503604
 H          1.87243104    1.83938706    0.39348599
 H          5.06627178   -0.81410402    1.03682005
 H          2.85275412   -1.57527006    0.95627999
 C          4.12833977    0.65513998   -1.94007897
 H          4.04130316    2.59583998   -0.06824000
 H          2.47670698    0.67467898    1.59725702
 C          2.60335302    0.39783999   -1.74772894
 H          4.55523300   -0.11336000   -2.58717704
 H          4.26752615    1.62460303   -2.42094493
 H          2.23749709   -0.39889601   -2.39458609
 H          2.00971103    1.29730594   -1.90274501
 O         -3.41373897    3.28412008    1.41841197
 O         -1.40935099    2.30588889    1.50406003
 C         -3.11039591    1.45278502    2.93710995
 C         -2.63303709    2.43330598    1.87523496
 H         -2.44072294    1.48940694    3.79955506
 H         -3.06615090    0.43753901    2.53312206
 H         -4.12994099    1.67446303    3.25044608
