55
wb97x-d4 ma-def2-tzvp(-f) cpcm(dmso) E: -1285.243809194087, G: -1284.82024219
 C         -2.03559899   -2.60767603    0.11882100
 C         -0.55294800   -2.20578599    0.22373401
 O          0.02909900   -2.68148589    1.41992998
 C         -0.36759499   -0.69995499    0.04854700
 C         -1.08670604   -0.22988400   -1.21384203
 C         -2.56567311   -0.61881697   -1.09296703
 C         -3.41269898   -0.15051800   -2.27754998
 O         -4.21212387    0.98747098   -1.96824598
 O         -2.63362503   -2.05030203   -1.03409100
 O         -0.87029201    1.13224900   -1.48655498
 O         -2.68690705   -2.23112297    1.29681695
 H         -2.99103189   -0.19846700   -0.17582500
 H         -2.11307812   -3.69191408   -0.02237400
 H         -0.67257702   -0.79829597   -2.05439091
 C         -4.00732088   -2.75978303    1.40023899
 H         -0.42114601   -2.23430705    2.14892101
 H         -2.77169490    0.05287300   -3.14311194
 H         -4.10210514   -0.95384401   -2.54385900
 H         -1.50770700    1.70044804   -0.97882599
 H         -3.67791009    1.63208604   -1.47489905
 H         -4.67029619   -2.30790401    0.65735298
 H         -4.36604023   -2.52075195    2.40087795
 H         -3.99755812   -3.84704208    1.26360905
 H         -0.03589300   -2.70421290   -0.59916699
 O         -0.69423002   -0.03457500    1.21297705
 H          0.76050401   -0.53953999   -0.15179899
 H         -0.85686898    0.94145697    1.08875406
 C          4.01612902    0.90277499    1.27567506
 C          2.55363989    0.36428499    1.22844195
 C          4.73360586    0.47617099   -0.01005200
 C          4.06471682    1.16506803   -1.20422399
 C          2.53804207    0.86092800   -1.15798104
 N          2.34667611   -0.15270001   -0.12099900
 H          4.51771879    0.49390200    2.15411401
 H          2.39405799   -0.45427901    1.92888498
 H          5.78802395    0.75339001    0.04088800
 H          4.21509695    2.24500608   -1.16376901
 H          2.17034411    0.45998299   -2.10155010
 H          4.00736713    1.99092102    1.36177099
 H          1.82105505    1.14896095    1.41403794
 C          4.59678602   -1.04230201   -0.17188600
 H          4.48780918    0.79544401   -2.14022803
 H          1.95033395    1.73478794   -0.88296700
 C          3.08998704   -1.38500702   -0.38111001
 H          4.97172022   -1.55356503    0.71675998
 H          5.16568518   -1.39360702   -1.03414595
 H          2.74337196   -2.14904809    0.31362399
 H          2.87698889   -1.69560206   -1.40337801
 O         -2.63666010    2.70935702   -0.33310500
 O         -1.28279197    2.51944089    1.42908001
 C         -2.96374297    4.21848202    1.48038805
 C         -2.24340105    3.05702710    0.82098502
 H         -2.58556199    5.14899206    1.04683995
 H         -2.78293705    4.23485518    2.55481195
 H         -4.03403521    4.16593218    1.27601695
