55
wb97x-d4 ma-def2-tzvp(-f) cpcm(dmso) E: -1285.240813772966, G: -1284.8201861900002
 C         -2.13558102   -2.24673700   -0.34797600
 C         -0.60947299   -2.06281900   -0.28869599
 O         -0.01836500   -2.94429493    0.64283597
 C         -0.24855900   -0.60464299   -0.00574800
 C         -0.97701102    0.32674900   -0.97917998
 C         -2.48619604    0.05357900   -0.89436901
 C         -3.27050090    0.90640199   -1.86422896
 O         -4.66296005    0.72420400   -1.60600197
 O         -2.71297193   -1.31753695   -1.23990798
 O         -0.62931299    1.68298995   -0.80623901
 O         -2.65279007   -2.14462709    0.94663697
 H         -2.85063100    0.23933700    0.12076300
 H         -2.37209010   -3.22944689   -0.77236402
 H         -0.65301698    0.04598600   -1.98701406
 C         -4.02660513   -2.51631093    1.03108597
 H         -0.33713400   -2.68040109    1.51658106
 H         -2.98523211    1.95170498   -1.72054696
 H         -3.02294803    0.60878599   -2.89041090
 H         -0.92939901    1.98198605    0.08418400
 H         -5.15160513    1.30827200   -2.19626808
 H         -4.65858412   -1.80933905    0.48678201
 H         -4.29254293   -2.50290895    2.08752298
 H         -4.17755699   -3.52380490    0.62704903
 H         -0.22116400   -2.33003211   -1.27369106
 O         -0.37756601   -0.33167899    1.34212899
 H          0.87480801   -0.49327201   -0.27294999
 H         -0.69126803    0.59996003    1.53007495
 C          3.95505095    1.29553902   -1.76147401
 C          2.54521298    0.63265997   -1.72892201
 C          4.74035883    0.82807499   -0.53062499
 C          4.71909380   -0.70429200   -0.48774299
 C          3.25261903   -1.16904604   -0.24267100
 N          2.40806389    0.01472800   -0.40924901
 H          3.85282993    2.38248610   -1.75549102
 H          1.74611604    1.36169600   -1.85023105
 H          5.76941586    1.18771398   -0.58330297
 H          5.08477402   -1.11397302   -1.43128705
 H          3.10361004   -1.54512799    0.76878202
 H          4.46571493    1.00488198   -2.68087006
 H          2.44384599   -0.15265600   -2.47716308
 C          4.05683994    1.36879003    0.73069000
 H          5.35210323   -1.08139002    0.31705201
 H          2.93615508   -1.92329597   -0.96241498
 C          2.55113196    0.97305399    0.68354797
 H          4.13661814    2.45584011    0.78100002
 H          4.52451992    0.95020199    1.62389600
 H          1.90723801    1.82377303    0.46577999
 H          2.22140789    0.49548700    1.60572696
 O         -3.28166699    3.07888103    1.67724895
 O         -1.28824401    2.07838607    1.74532199
 C         -3.02228808    1.16479003    3.10009289
 C         -2.51805210    2.19715905    2.10213804
 H         -4.06082201    1.34934604    3.37169099
 H         -2.39639091    1.18770003    3.99561810
 H         -2.92900205    0.16649100    2.66280699
