55
wb97x-d4 ma-def2-tzvp(-f) cpcm(dmso) E: -1285.246707551076, G: -1284.8236914200002
 C         -2.05313802   -2.56446695   -0.68535697
 C         -0.59289497   -2.11396503   -0.51625103
 O          0.10557700   -2.93442106    0.39705101
 C         -0.50255901   -0.63812602   -0.13817500
 C         -1.32516301    0.22108300   -1.10381103
 C         -2.75790405   -0.32178399   -1.13323605
 C         -3.63492393    0.41167799   -2.12813997
 O         -4.96785688   -0.09244600   -2.11881804
 O         -2.73163605   -1.68903196   -1.56272101
 O         -1.26252997    1.59269702   -0.80870599
 O         -2.65693998   -2.64437604    0.57090300
 H         -3.20277095   -0.25770700   -0.13428000
 H         -2.08366203   -3.54136705   -1.18155003
 H         -0.89736199    0.08722300   -2.10359693
 C         -3.93296194   -3.28054690    0.53727001
 H         -0.23420000   -2.72315788    1.27716994
 H         -3.69046688    1.46626902   -1.85997796
 H         -3.19600701    0.32653999   -3.13024211
 H         -1.72956502    1.79487300    0.04443100
 H         -4.91502619   -1.04104805   -2.28946090
 H         -3.85342002   -4.27672386    0.08760600
 H         -4.65441895   -2.68395305   -0.02807000
 H         -4.26776695   -3.37216401    1.57002699
 H         -0.11607600   -2.24341297   -1.49079204
 O         -0.78110403   -0.47427401    1.20172095
 H          0.60388100   -0.33499900   -0.31694800
 H         -0.66798198    0.47666800    1.51760602
 C          3.80235696    1.63647902   -1.13870001
 C          2.28003407    1.32943702   -1.03508997
 C          4.54879379    0.71157497   -0.17110801
 C          4.40554905   -0.73293102   -0.66322798
 C          2.89234400   -1.03029299   -0.88150299
 N          2.16043496    0.08367400   -0.27533299
 H          3.97159290    2.68437505   -0.88610703
 H          1.73842204    2.10276699   -0.49287999
 H          5.60310078    0.98923999   -0.12292200
 H          4.93672800   -0.87728399   -1.60534406
 H          2.57846498   -1.95204401   -0.39391500
 H          4.14604092    1.47085702   -2.16164398
 H          1.82276595    1.18376601   -2.01310706
 C          3.90867591    0.83003002    1.21756196
 H          4.81746483   -1.42744195    0.07162700
 H          2.62915492   -1.06748295   -1.93829894
 C          2.46209097    0.25372800    1.14399600
 H          3.87582803    1.87508905    1.53150904
 H          4.47790718    0.26745901    1.95903099
 H          1.72814405    0.93272001    1.57680500
 H          2.38480592   -0.72227699    1.62153602
 O         -0.47483999    1.83032596    2.34852195
 O         -2.41332293    2.44726205    1.43315399
 C         -1.65971303    3.65624189    3.34399891
 C         -1.50751495    2.56007910    2.30299997
 H         -0.93677503    3.54393911    4.15141487
 H         -2.67476511    3.64809799    3.74555802
 H         -1.50489295    4.62355423    2.85781693
