55
wb97x-d4 ma-def2-tzvp(-f) cpcm(dmso) E: -1285.240695451521, G: -1284.82008807
 C         -2.12098098   -2.04063892    0.96766698
 C         -0.60305798   -1.79284799    0.96872503
 O         -0.07267500   -1.83523405    2.27679610
 C         -0.26689100   -0.48559600    0.25189999
 C         -0.92030501   -0.45540601   -1.13302398
 C         -2.43310690   -0.66495103   -0.96430397
 C         -3.15853310   -0.68530798   -2.28958297
 O         -4.56334114   -0.71895897   -2.03512311
 O         -2.64239693   -1.93594694   -0.33911401
 O         -0.57737899    0.68876600   -1.88317299
 O         -2.72169495   -1.15191805    1.86372304
 H         -2.85880399    0.12496300   -0.33767700
 H         -2.32489800   -3.07458496    1.26988804
 H         -0.53156298   -1.31792104   -1.68443704
 C         -4.09525585   -1.44730997    2.10760903
 H         -0.46476001   -1.09567404    2.76055789
 H         -2.89013910    0.21308500   -2.85116291
 H         -2.84550405   -1.56741202   -2.86123991
 H         -0.92969298    1.49108505   -1.43061304
 H         -5.01808786   -0.68147701   -2.88366890
 H         -4.21067095   -2.48212290    2.44958401
 H         -4.69530106   -1.29439998    1.20644200
 H         -4.43121290   -0.76512200    2.88792610
 H         -0.14841600   -2.61575389    0.41323200
 O         -0.50488400    0.59456497    1.08083200
 H          0.87267703   -0.51409602    0.04819300
 H         -0.82720399    1.40416801    0.58916199
 C          4.60804510   -0.29251501    0.95553499
 C          3.13643408   -0.80498499    0.98466998
 C          4.81744289    0.50757903   -0.33517599
 C          3.93714309    1.76136196   -0.28970900
 C          2.46989489    1.32523203    0.00692800
 N          2.44072509   -0.13037600   -0.11141800
 H          5.28500319   -1.14717102    0.99730402
 H          3.07046604   -1.87835801    0.81174701
 H          5.86685514    0.79054803   -0.43434799
 H          4.27184391    2.44343901    0.49328199
 H          1.76365197    1.74340296   -0.70870101
 H          4.79775095    0.33708099    1.82701004
 H          2.63197708   -0.55373400    1.91648400
 C          4.39083290   -0.35745201   -1.52660704
 H          3.97955799    2.28850794   -1.24465597
 H          2.16144991    1.58537495    1.01806402
 C          2.85532403   -0.60618103   -1.43141699
 H          4.92211008   -1.31094503   -1.51139104
 H          4.61361217    0.14343600   -2.47000694
 H          2.60605192   -1.66387498   -1.50979400
 H          2.29944897   -0.04336600   -2.17961001
 O         -3.34703398    3.35701394   -1.12240303
 O         -1.41556203    2.63266301   -0.27259001
 C         -3.27726293    2.79417205    1.20696497
 C         -2.65680099    2.95037889   -0.17394499
 H         -2.69021201    3.35238290    1.94001305
 H         -3.24517298    1.74029696    1.49703801
 H         -4.30949879    3.14213610    1.21761596
