55
wb97x-d4 ma-def2-tzvp(-f) cpcm(dmso) E: -1285.24278640788, G: -1284.8200794000002
 C         -2.00619102    2.29221392   -0.49521101
 C         -0.50995201    1.95021999   -0.62188202
 O         -0.02829500    2.20046091   -1.92565000
 C         -0.23620400    0.51574600   -0.17438200
 C         -0.84495801    0.24214999    1.20020902
 C         -2.34253097    0.56973302    1.12086594
 C         -3.08853602    0.30402201    2.41875410
 O         -4.45229006   -0.02933000    2.18334389
 O         -2.49059892    1.95647705    0.78643101
 O         -0.58626997   -1.07215500    1.64166498
 O         -2.69884205    1.64298105   -1.52249897
 H         -2.79664993   -0.04039200    0.33676499
 H         -2.14266109    3.37663889   -0.57607698
 H         -0.37520200    0.92649400    1.91454804
 C         -4.04988909    2.08204603   -1.64888406
 H         -0.52789402    1.62914598   -2.52419591
 H         -2.58667302   -0.50293100    2.95921206
 H         -3.06846189    1.20203698    3.04068899
 H         -1.14191794   -1.69294405    1.10767603
 H         -4.42291594   -0.86370599    1.67711902
 H         -4.63751078    1.79927504   -0.77111900
 H         -4.45876980    1.59516597   -2.53349900
 H         -4.08887196    3.16919303   -1.77728903
 H          0.02606100    2.62329698    0.05090200
 O         -0.57339197   -0.38578701   -1.17176497
 H          0.91596502    0.44705099   -0.02924000
 H         -1.01137602   -1.18958104   -0.81226498
 C          4.66255283    0.98031700   -0.60353100
 C          3.14490700    1.32230198   -0.53251398
 C          4.90084505   -0.33613399    0.14261299
 C          4.16006517   -1.46230102   -0.58666998
 C          2.66116309   -1.05930603   -0.72881800
 N          2.47916102    0.15956400    0.05759700
 H          5.23433781    1.79053700   -0.14847000
 H          2.94681811    2.18120289    0.10797700
 H          5.96911383   -0.55662400    0.18056300
 H          4.58328915   -1.62380803   -1.57949400
 H          1.99113095   -1.82287395   -0.33587900
 H          4.97231817    0.88693899   -1.64617705
 H          2.71510506    1.49687302   -1.51758206
 C          4.34062910   -0.21123300    1.56418502
 H          4.24011707   -2.39479303   -0.02540000
 H          2.39190102   -0.83618897   -1.76023698
 C          2.79675388   -0.02203000    1.47538400
 H          4.78981495    0.64266998    2.07485890
 H          4.55809593   -1.10948503    2.14416790
 H          2.45959210    0.86202401    2.01627207
 H          2.25071907   -0.89440602    1.82972598
 O         -1.91789806   -2.53231192   -0.14733499
 O         -4.00902796   -2.32093000    0.62523901
 C         -3.65548396   -3.61805391   -1.35271096
 C         -3.17393899   -2.74987411   -0.19999300
 H         -3.26891494   -4.63237810   -1.21611404
 H         -3.25454307   -3.23738599   -2.29449606
 H         -4.74379921   -3.64983892   -1.39738595
