55
wb97x-d4 ma-def2-tzvp(-f) cpcm(dmso) E: -1285.240906032111, G: -1284.81999485
 C         -2.17350507   -2.22279811   -0.18174000
 C         -0.64501202   -2.05615306   -0.12426500
 O         -0.07417200   -2.84292698    0.90013999
 C         -0.26531601   -0.58217800    0.01061700
 C         -0.97006202    0.25578001   -1.05942404
 C         -2.48402500    0.01402800   -0.97099900
 C         -3.23586392    0.76583898   -2.04479790
 O         -4.63621616    0.61486602   -1.81111002
 O         -2.72774911   -1.38315797   -1.17168295
 O         -0.60289699    1.61698604   -1.01706195
 O         -2.70034695   -1.97884905    1.08992398
 H         -2.86307311    0.31557301    0.01054200
 H         -2.42250395   -3.24048495   -0.50461000
 H         -0.63657802   -0.12839299   -2.02924204
 C         -4.08641720   -2.29672909    1.19275904
 H         -0.39078000   -2.47960496    1.73818004
 H         -2.94817305    1.81944895   -2.00060797
 H         -2.96036100    0.36406401   -3.02748895
 H         -0.91245902    2.00986791   -0.16783400
 H         -5.10378790    1.14344800   -2.46709991
 H         -4.36200619   -2.16841292    2.23910189
 H         -4.26646090   -3.33421898    0.88904703
 H         -4.68967199   -1.62813103    0.57262802
 H         -0.25159001   -2.42976403   -1.07199800
 O         -0.39993900   -0.17152201    1.32313001
 H          0.85905802   -0.51177299   -0.25765499
 H         -0.71573502    0.77440399    1.41271400
 C          4.69813919   -0.84917998   -0.23806401
 C          3.20380306   -1.23996997   -0.03448400
 C          4.77752209    0.66810602   -0.44165301
 C          4.04747391    1.36100698    0.71465999
 C          2.53247905    1.01263297    0.61812299
 N          2.41500401   -0.05450900   -0.37158200
 H          5.10199213   -1.36998999   -1.10838306
 H          2.90009689   -2.05376101   -0.69213301
 H          5.82035589    0.98850000   -0.47259501
 H          4.44774485    1.02183497    1.67200804
 H          1.93753099    1.85510302    0.26910800
 H          5.26963902   -1.15557802    0.63946003
 H          2.98384690   -1.50479901    0.99906301
 C          4.07779217    1.02432001   -1.75857902
 H          4.16648006    2.44408488    0.65821803
 H          2.13066697    0.65216601    1.56450903
 C          2.64339900    0.41425601   -1.73875594
 H          4.62596703    0.61962599   -2.61075807
 H          4.01684618    2.10817289   -1.87406504
 H          2.55227900   -0.44220099   -2.40583205
 H          1.87935400    1.15170598   -1.97980499
 O         -3.29392695    3.28710198    1.37539697
 O         -1.30976200    2.26903296    1.46941102
 C         -3.02574396    1.46867001    2.91549897
 C         -2.52945495    2.42750406    1.84273803
 H         -3.06480408    0.45885500    2.49688792
 H         -4.01670599    1.75023103    3.26974511
 H         -2.32237196    1.44786799    3.75069690
