55
wb97x-d4 ma-def2-tzvp(-f) cpcm(dmso) E: -1285.243349034442, G: -1284.81992977
 C         -2.04814792   -2.62924194   -0.31885201
 C         -0.55921698   -2.24853897   -0.20514201
 O          0.06772400   -2.93634391    0.85781002
 C         -0.36833599   -0.73584503   -0.11209900
 C         -1.14524198   -0.04335600   -1.23029304
 C         -2.61814094   -0.44958901   -1.09917295
 C         -3.52660203    0.25323200   -2.10937309
 O         -4.34485912    1.25381196   -1.50765097
 O         -2.69889688   -1.86550498   -1.31421399
 O         -0.94221997    1.34765804   -1.25405705
 O         -2.64248705   -2.48658204    0.93851900
 H         -2.97898293   -0.21764600   -0.09256300
 H         -2.13533807   -3.66734910   -0.65903902
 H         -0.77818799   -0.44265401   -2.18226504
 C         -3.94591308   -3.06105304    1.01126397
 H         -0.35476899   -2.63605690    1.67353106
 H         -2.92823005    0.68586200   -2.91874790
 H         -4.20351696   -0.48658401   -2.54053593
 H         -1.53435600    1.78929198   -0.59012097
 H         -3.80667901    1.78377402   -0.89700598
 H         -3.91974306   -4.11168623    0.70094699
 H         -4.65180922   -2.51452208    0.37991601
 H         -4.26276207   -2.99610806    2.05168390
 H         -0.08043300   -2.58718300   -1.12652397
 O         -0.63440198   -0.29364601    1.16894698
 H          0.75299603   -0.53582901   -0.32985699
 H         -0.72983998    0.69796401    1.24098802
 C          3.77823305    1.82286000   -0.06151400
 C          2.30099297    1.37325096   -0.27024901
 C          4.67583704    0.58151299   -0.08367700
 C          4.43892717   -0.18217900   -1.39149296
 C          2.96074605   -0.67795801   -1.41872597
 N          2.30373311   -0.08976000   -0.25188899
 H          3.87439299    2.34309697    0.89328200
 H          1.64716494    1.72251904    0.52796298
 H          5.72389793    0.87734199   -0.01021700
 H          4.62406778    0.46829301   -2.24831295
 H          2.88859391   -1.76172495   -1.33321702
 H          4.05727386    2.51525497   -0.85742998
 H          1.90272903    1.69463801   -1.23046994
 C          4.30266285   -0.32173499    1.09673095
 H          5.10760880   -1.04135501   -1.46356595
 H          2.43249702   -0.34499800   -2.31150007
 C          2.77916098   -0.64367098    1.01449800
 H          4.51589203    0.17498100    2.04452300
 H          4.87537003   -1.25022697    1.06023002
 H          2.21473694   -0.17187700    1.81788003
 H          2.58300304   -1.71434104    1.01322699
 O         -2.61392307    2.58819795    0.36603999
 O         -1.01793599    2.21731710    1.87737405
 C         -2.68968201    3.85251307    2.38477802
 C         -2.05297303    2.81266499    1.48041403
 H         -3.57172990    3.40676904    2.85395408
 H         -3.02265501    4.71088505    1.79938996
 H         -2.00023293    4.17145205    3.16588402
