55
wb97x-d4 ma-def2-tzvp(-f) cpcm(dmso) E: -1285.243085390875, G: -1284.81986753
 C         -2.00651312    2.18545890   -0.26604900
 C         -0.50222999    1.87093902   -0.35364199
 O          0.04182400    2.26759195   -1.59495103
 C         -0.23078600    0.39722100   -0.05500000
 C         -0.90582401   -0.03530600    1.24752796
 C         -2.40145302    0.29540399    1.13093698
 C         -3.21025109   -0.11742700    2.34894395
 O         -4.57629013   -0.35410100    2.02101111
 O         -2.54408002    1.70986605    0.94914502
 O         -0.65251601   -1.38738000    1.55529296
 O         -2.64229989    1.64298105   -1.38698995
 H         -2.81411600   -0.21626100    0.25942200
 H         -2.15454102    3.27118206   -0.23749900
 H         -0.48172900    0.56898803    2.05597997
 C         -4.00062704    2.05862808   -1.51538801
 H         -0.39316499    1.73577404   -2.27502990
 H         -2.76267791   -1.01293099    2.78740907
 H         -3.18439698    0.68312901    3.09196901
 H         -1.17808199   -1.95178902    0.93626302
 H         -4.57195282   -1.13558805    1.43995297
 H         -4.61793613    1.63189602   -0.72021002
 H         -4.35131979    1.69737804   -2.48159003
 H         -4.07169819    3.15167594   -1.48350596
 H         -0.01061800    2.47030902    0.41606900
 O         -0.49887100   -0.38538101   -1.16650105
 H          0.91524798    0.32751700    0.14070900
 H         -0.94305402   -1.23394895   -0.93325901
 C          4.30913782   -0.91911900   -1.04085195
 C          2.80212092   -0.52909601   -1.09047198
 C          4.94149780   -0.26447499    0.19283400
 C          4.31248903   -0.86962903    1.45224202
 C          2.76524305   -0.74855399    1.33760703
 N          2.49515009    0.11506500    0.18564200
 H          4.79627180   -0.57551199   -1.95470703
 H          2.58700895    0.18426099   -1.88508201
 H          6.02001286   -0.43126699    0.19409300
 H          4.58174992   -1.92221296    1.55343103
 H          2.32218599   -0.28993800    2.22087312
 H          4.41007805   -2.00478911   -0.98690802
 H          2.15529609   -1.39878798   -1.20034397
 C          4.64229107    1.23885596    0.16389699
 H          4.66196489   -0.34135899    2.34136200
 H          2.28894901   -1.70932400    1.15132499
 C          3.10496593    1.44078600    0.31360599
 H          4.98278999    1.67478395   -0.77730000
 H          5.15142488    1.75119305    0.98173499
 H          2.69811106    2.08256888   -0.46672800
 H          2.83518910    1.83899200    1.29105699
 O         -1.89999294   -2.60464811   -0.44983399
 O         -3.98906493   -2.59005404    0.34266600
 C         -3.67968512   -2.66635203   -2.02897191
 C         -3.16779304   -2.62670588   -0.59859502
 H         -3.10529709   -3.38102102   -2.62078595
 H         -3.53199792   -1.67551601   -2.47022200
 H         -4.74013805   -2.91396999   -2.06258297
