55
wb97x-d4 ma-def2-tzvp(-f) cpcm(dmso) E: -1285.243109651154, G: -1284.8198468500002
 C         -2.00708604   -2.14150500    0.41156799
 C         -0.50185901   -1.82411206    0.46958399
 O          0.05012800   -2.14754009    1.72837496
 C         -0.23192400   -0.37056801    0.08371700
 C         -0.91640699   -0.01547100   -1.23709404
 C         -2.41152906   -0.33745000   -1.09271896
 C         -3.22539401    0.00376500   -2.33008504
 O         -4.58628511    0.27755201   -2.01065612
 O         -2.55346608   -1.73856902   -0.82604098
 O         -0.66353101    1.31503999   -1.62904596
 O         -2.63407707   -1.53217900    1.50280094
 H         -2.81954694    0.22484000   -0.25070700
 H         -2.15556002   -3.22682500    0.44894201
 H         -0.49809799   -0.66790801   -2.01044011
 C         -3.98522401   -1.95410800    1.67884898
 H         -0.37968200   -1.57570398    2.37860799
 H         -2.77154303    0.86300898   -2.82980299
 H         -3.21284795   -0.84496802   -3.01798797
 H         -1.17439604    1.91930401   -1.03584898
 H         -4.57004976    1.10325098   -1.49417198
 H         -4.04033279   -3.04672408    1.74177206
 H         -4.61526108   -1.60597301    0.85587502
 H         -4.33327293   -1.51612902    2.61374497
 H         -0.01613400   -2.46853995   -0.26672599
 O         -0.49049899    0.47465399    1.15082395
 H          0.91283500   -0.31405699   -0.12499600
 H         -0.93992299    1.30684805    0.87265003
 C          4.34069490    0.91968900    0.97246999
 C          2.83068204    0.54876399    1.06045699
 C          4.94984198    0.19285400   -0.23256400
 C          4.32312012    0.75099200   -1.51467705
 C          2.77490807    0.68823600   -1.37221205
 N          2.49547911   -0.13086601   -0.18992101
 H          4.83466816    0.61971903    1.89794397
 H          2.62264109   -0.13804300    1.87986505
 H          6.03167105    0.33519101   -0.24950700
 H          4.62408400    1.78730094   -1.67616296
 H          2.30145192    0.22054701   -2.23462296
 H          4.45250607    1.99971700    0.85917401
 H          2.19528794    1.42876196    1.15499496
 C          4.61643124   -1.29997396   -0.12964100
 H          4.64193487    0.16427800   -2.37853098
 H          2.33605790    1.67059195   -1.20646799
 C          3.07612491   -1.47311902   -0.27899599
 H          4.94186687   -1.69477296    0.83476698
 H          5.11724186   -1.86539400   -0.91703200
 H          2.65349507   -2.08436394    0.51731902
 H          2.80071211   -1.89108896   -1.24664295
 O         -3.95485806    2.63521910   -0.52801698
 O         -1.88669598    2.65423989    0.31635800
 C         -3.70588803    2.77663803    1.84762299
 C         -3.15771103    2.69191599    0.43279400
 H         -3.13484502    3.49599290    2.43690896
 H         -3.58749509    1.79456496    2.31662512
 H         -4.76244593    3.04247808    1.84670997
