55
wb97x-d4 ma-def2-tzvp(-f) cpcm(dmso) E: -1285.245009207745, G: -1284.82347372
 C         -2.10433507   -2.33947992   -1.36714303
 C         -0.63490802   -1.98744297   -1.09196901
 O          0.20234500   -3.11735296   -1.20953000
 C         -0.47110200   -1.27771497    0.24467100
 C         -1.48332500   -0.15980700    0.44237500
 C         -2.89513612   -0.67496997    0.14182900
 C         -3.94834995    0.41877800    0.23994200
 O         -3.65238690    1.57279098   -0.53153002
 O         -2.92857409   -1.21069300   -1.18574703
 O         -1.37528002    0.30124399    1.77168000
 O         -2.45936394   -3.41287398   -0.54438198
 H         -3.15247989   -1.45814395    0.86365998
 H         -2.22293901   -2.61644006   -2.42071104
 H         -1.25113499    0.63651502   -0.27277800
 C         -3.70739508   -4.00300884   -0.90505701
 H         -0.11980200   -3.77942705   -0.58355498
 H         -4.89634609    0.00935700   -0.11906000
 H         -4.07149506    0.68001199    1.29621899
 H         -1.52582896    1.28284705    1.74140799
 H         -3.05343795    2.13485909    0.00736000
 H         -3.68879199   -4.32420206   -1.95233798
 H         -4.53084898   -3.29922009   -0.75575298
 H         -3.84662008   -4.86882687   -0.25870201
 H         -0.33484700   -1.28514004   -1.87319005
 O         -0.42894101   -2.17389107    1.30426502
 H          0.57238001   -0.74159801    0.20045300
 H         -0.58363801   -1.66246402    2.11382604
 C          4.34882689   -0.52557099    0.10359800
 C          2.92827010   -1.12751603   -0.08645800
 C          4.21565390    0.99613899    0.23125200
 C          3.47291398    1.31512403    1.53385603
 C          2.14887595    0.49749500    1.56181204
 N          1.97391403   -0.05744900    0.21611901
 H          4.96715212   -0.79280698   -0.75483000
 H          2.75034690   -1.44955695   -1.11170101
 H          5.20294714    1.46102595    0.23750500
 H          4.07843399    1.04906201    2.40178299
 H          1.29140902    1.12883198    1.78567100
 H          4.81247520   -0.94041198    1.00075495
 H          2.73881602   -1.95815206    0.59291399
 C          3.39162707    1.52330005   -0.94988799
 H          3.24623108    2.38183594    1.58939600
 H          2.19365096   -0.33725199    2.26122689
 C          1.93923795    0.98252302   -0.81702799
 H          3.82884312    1.19098902   -1.89359295
 H          3.36584306    2.61431003   -0.95011699
 H          1.58218300    0.53449202   -1.74421406
 H          1.24586797    1.75373995   -0.48396501
 O          0.26336500    3.32699394    1.20372701
 O         -1.90775895    2.81014299    1.17545700
 C         -1.09923196    4.24527502   -0.54359400
 C         -0.87653399    3.40832090    0.70871001
 H         -1.89724803    4.97019815   -0.36713099
 H         -1.42485905    3.59058189   -1.35693705
 H         -0.18866800    4.76463079   -0.84056801
