55
wb97x-d4 ma-def2-tzvp(-f) cpcm(dmso) E: -1285.242722000105, G: -1284.8197806300002
 C         -2.29776406    1.51018798   -0.19051901
 C         -0.79344499    1.22337902   -0.26070300
 O         -0.30090401    1.19006395   -1.57761300
 C         -0.43559101   -0.00977700    0.57200700
 C         -0.96575999    0.13084500    1.99750698
 C         -2.47378707    0.42617401    1.93488002
 C         -3.05800509    0.67137402    3.31336403
 O         -4.47894621    0.79308897    3.29299402
 O         -2.70421600    1.60571802    1.16094804
 O         -0.69172800   -1.03815198    2.75044394
 O         -2.98595095    0.52512902   -0.89705598
 H         -2.97878194   -0.42924899    1.46949399
 H         -2.50429511    2.49872994   -0.61726803
 H         -0.45925400    0.96298897    2.49411607
 C         -4.35769701    0.84057999   -1.11567795
 H         -0.60913402    0.36849600   -2.02962208
 H         -2.74669290   -0.13688800    3.98044491
 H         -2.67238903    1.61583102    3.70519209
 H         -0.89664298   -1.79273105    2.18053293
 H         -4.84873676   -0.06847000    3.06626797
 H         -4.91375399    0.85542500   -0.17386100
 H         -4.76054192    0.06283900   -1.76393497
 H         -4.45347595    1.81460702   -1.60884297
 H         -0.30969799    2.07072592    0.23489401
 O         -0.80272502   -1.25022304    0.08689100
 H          0.72297400    0.01545800    0.64102799
 H         -0.83382303   -1.29328096   -0.91714197
 C          4.45017576   -0.56578797    1.46584904
 C          2.90796304   -0.51636100    1.68500698
 C          4.73247290   -0.44698599   -0.03617100
 C          4.28421879    0.93774700   -0.51669103
 C          2.80263209    1.15565097   -0.08674500
 N          2.31830812   -0.13670300    0.40116099
 H          4.83638382   -1.50705099    1.85999095
 H          2.50216603   -1.48721695    1.96650898
 H          5.79782677   -0.58475399   -0.22879700
 H          4.90305901    1.72031105   -0.07478700
 H          2.17265701    1.46424305   -0.91917801
 H          4.92719984    0.25335801    2.00732589
 H          2.62301803    0.22765800    2.42816401
 C          3.92149591   -1.51652896   -0.77689600
 H          4.36833477    1.00730300   -1.60294497
 H          2.71353698    1.87354600    0.72783500
 C          2.40700889   -1.19452000   -0.60299802
 H          4.14054489   -2.50636005   -0.37215701
 H          4.16386414   -1.52114296   -1.84072101
 H          1.84128797   -2.05500698   -0.24709900
 H          1.95792401   -0.82016402   -1.52188098
 O         -0.90443999   -1.23434806   -2.50723410
 O         -2.77336407   -2.45275807   -2.61138010
 C         -2.53007102   -0.61106902   -4.12724590
 C         -2.05834007   -1.51423895   -2.99892211
 H         -2.60817289    0.41177800   -3.75093293
 H         -3.49619794   -0.93150598   -4.51593113
 H         -1.79072905   -0.61196101   -4.93189812
