55
wb97x-d4 ma-def2-tzvp(-f) cpcm(dmso) E: -1285.242365616447, G: -1284.81977591
 C         -2.09403992   -2.57255101    0.06716200
 C         -0.58690798   -2.27358890    0.16429900
 O          0.00045600   -2.93532610    1.26460505
 C         -0.32272601   -0.76715398    0.19680101
 C         -1.04884195   -0.09448700   -0.96775597
 C         -2.54310298   -0.43318301   -0.90450799
 C         -3.31614709    0.13701500   -2.08808398
 O         -3.44814205    1.55132902   -2.01415896
 O         -2.68273902   -1.85350597   -0.99716997
 O         -0.79270601    1.29524803   -1.07302701
 O         -2.69279909   -2.29381609    1.29733503
 H         -2.98048091   -0.06560900    0.03004000
 H         -2.24120402   -3.62709689   -0.19359200
 H         -0.65958202   -0.54680502   -1.88599896
 C         -4.03617096   -2.76466894    1.38570297
 H         -0.37577701   -2.53750801    2.06151009
 H         -2.82231903   -0.16382200   -3.02114892
 H         -4.32430506   -0.28210601   -2.08342791
 H         -1.02076697    1.73843706   -0.22080500
 H         -2.55119205    1.90121603   -1.90768301
 H         -4.36191320   -2.59824610    2.41195989
 H         -4.08426094   -3.83466196    1.15375102
 H         -4.69004917   -2.21636009    0.70214599
 H         -0.12664500   -2.68333006   -0.73725301
 O         -0.55467403   -0.26939499    1.46433604
 H          0.80221498   -0.63471699   -0.03417300
 H         -0.85932702    0.68917900    1.46748495
 C          3.85561204    1.61442101    0.56055301
 C          2.43494105    0.99843299    0.74761599
 C          4.68397284    0.66897899   -0.31733999
 C          4.06030416    0.61311400   -1.71648896
 C          2.55057907    0.25642401   -1.57078898
 N          2.35202408   -0.13096900   -0.17406800
 H          4.32063484    1.74300206    1.53902602
 H          2.28067303    0.62070400    1.75734997
 H          5.71386623    1.02475798   -0.38051000
 H          4.15097189    1.57615602   -2.22135711
 H          2.26568508   -0.58245599   -2.20515704
 H          3.77257800    2.59536505    0.08889300
 H          1.64623797    1.70654500    0.49742800
 C          4.64859390   -0.73441797    0.29716000
 H          4.56259108   -0.14143901   -2.32467794
 H          1.90221095    1.10655701   -1.77583206
 C          3.18413210   -1.26345503    0.23206000
 H          4.98496103   -0.70298398    1.33518600
 H          5.29900408   -1.41613996   -0.25293899
 H          2.83246803   -1.61807096    1.19999695
 H          3.06350207   -2.05069900   -0.51121199
 O         -3.25503612    1.69628096    2.40923905
 O         -1.34616494    2.20351005    1.36384296
 C         -3.15093207    3.73582196    1.15207398
 C         -2.56652904    2.44196200    1.69517398
 H         -4.19533014    3.84964204    1.44071305
 H         -3.06574297    3.74360299    0.06279100
 H         -2.57166290    4.58086395    1.53292096
