55
wb97x-d4 ma-def2-tzvp(-f) cpcm(dmso) E: -1285.241587477757, G: -1284.8196504
 C         -2.09199500   -2.45459890   -0.62413001
 C         -0.61196899   -2.03330708   -0.56860399
 O          0.13722201   -2.88852000    0.26752201
 C         -0.46480700   -0.56693101   -0.16893201
 C         -1.34131396    0.29782999   -1.07233500
 C         -2.79187393   -0.19059099   -0.95354700
 C         -3.74057102    0.59249002   -1.85323799
 O         -3.96339798    1.91255200   -1.37117696
 O         -2.84813404   -1.54780805   -1.40109801
 O         -1.22005999    1.69303203   -0.85076803
 O         -2.57333803   -2.57455492    0.68143302
 H         -3.12953091   -0.11605100    0.08592200
 H         -2.17861104   -3.41352606   -1.14737296
 H         -1.02325702    0.11693900   -2.10449696
 C         -3.83196998   -3.24198389    0.75557101
 H         -0.20778000   -2.77895904    1.16385198
 H         -3.34124589    0.61027700   -2.87572408
 H         -4.70699406    0.08463800   -1.87183404
 H         -1.07029998    1.89212799    0.10051300
 H         -3.08422589    2.28935099   -1.21204102
 H         -3.77181411   -4.22700500    0.27944300
 H         -4.61739779   -2.65304995    0.27405399
 H         -4.06412077   -3.36187911    1.81328595
 H         -0.21427600   -2.14896703   -1.57912004
 O         -0.64028800   -0.41712001    1.18702102
 H          0.64721000   -0.28349200   -0.42195299
 H         -0.65011698    0.55848098    1.45036399
 C          4.38552713   -0.40617999   -1.24381602
 C          2.86798596   -0.74022102   -1.34696400
 C          4.55450821    0.83361399   -0.35890201
 C          4.05680323    0.51335102    1.05463398
 C          2.58834410    0.00169200    0.96079999
 N          2.17144394    0.16774100   -0.43147901
 H          4.78203106   -0.22085901   -2.24339509
 H          2.47563505   -0.56910598   -2.34870601
 H          5.60545921    1.12654996   -0.32602000
 H          4.67581081   -0.25765899    1.51629496
 H          1.91167998    0.57865697    1.58951902
 H          4.92193699   -1.25493002   -0.81540602
 H          2.65211201   -1.76273704   -1.03961504
 C          3.71101594    1.97496998   -0.93575603
 H          4.09827185    1.40566194    1.68194699
 H          2.50354195   -1.05513597    1.21084201
 C          2.20999503    1.56516397   -0.87324399
 H          3.99714994    2.17269993   -1.97041297
 H          3.85766101    2.89040709   -0.36022401
 H          1.72635603    1.62585902   -1.84702599
 H          1.64786804    2.15738201   -0.15285100
 O         -0.58820498    2.09743190    1.74745905
 O         -1.58559203    3.80394292    2.78253198
 C         -2.41877198    1.59601700    3.19644904
 C         -1.47240806    2.59262609    2.54155493
 H         -3.01925993    1.11258996    2.42024112
 H         -3.07735610    2.08777905    3.91096210
 H         -1.84458697    0.81332099    3.69796991
