55
wb97x-d4 ma-def2-tzvp(-f) cpcm(dmso) E: -1285.241372127564, G: -1284.81953732
 C         -2.13132000   -2.46201301    0.03569900
 C         -0.61173201   -2.23227692    0.12899300
 O         -0.04586100   -2.94255090    1.21077704
 C         -0.28453401   -0.74039203    0.19407600
 C         -0.98715901    0.00439800   -0.94248098
 C         -2.49360299   -0.27500400   -0.85847300
 C         -3.29301906    0.42206499   -1.93567896
 O         -2.76466489    0.09485700   -3.22022104
 O         -2.69541788   -1.68671799   -0.99982500
 O         -0.66527599    1.37706006   -0.99104702
 O         -2.70692301   -2.19477391    1.28147805
 H         -2.88331389    0.05778300    0.10963100
 H         -2.32745600   -3.50136209   -0.25285399
 H         -0.62713099   -0.43252000   -1.87744701
 C         -4.06934786   -2.60618997    1.36705601
 H         -0.39296901   -2.53928089    2.01807499
 H         -4.33761406    0.10163600   -1.85467100
 H         -3.24299502    1.50100100   -1.75828004
 H         -0.96939403    1.80989301   -0.16224401
 H         -3.29929709    0.54608703   -3.88223600
 H         -4.16731691   -3.66691589    1.10933304
 H         -4.70190096   -2.01256609    0.70138597
 H         -4.38215303   -2.45069003    2.39910698
 H         -0.17582101   -2.64123392   -0.78492701
 O         -0.47901201   -0.26357201    1.47735202
 H          0.84196103   -0.64710301   -0.04402300
 H         -0.82886600    0.67769200    1.50576699
 C          3.97445893    1.33667505    0.91989601
 C          2.47112393    0.94031602    0.81424397
 C          4.73905897    0.63828599   -0.21049801
 C          4.04671097    0.94353199   -1.54382598
 C          2.62934303    0.29396901   -1.52728105
 N          2.39901304   -0.15029299   -0.15282200
 H          4.37211323    1.03250802    1.88998699
 H          2.06901002    0.58865601    1.76377499
 H          5.77251577    0.98824400   -0.23620699
 H          3.95653391    2.02225208   -1.68534601
 H          2.57030106   -0.57915902   -2.17610693
 H          4.06194496    2.42117405    0.83853602
 H          1.85594404    1.75728500    0.44033399
 C          4.70116091   -0.87525201    0.02821400
 H          4.61684799    0.53513598   -2.37966800
 H          1.84781301    1.00383198   -1.79300201
 C          3.21557903   -1.30516303    0.22030400
 H          5.26847410   -1.14371502    0.92072999
 H          5.13232708   -1.40426397   -0.82381201
 H          2.98915005   -1.55405295    1.25629401
 H          2.94454408   -2.14092302   -0.42387700
 O         -3.30171609    1.56750202    2.46300912
 O         -1.39917004    2.17224908    1.45777094
 C         -3.28572893    3.58694291    1.16916597
 C         -2.63741302    2.34313512    1.75594795
 H         -2.72141290    4.47202110    1.47243404
 H         -4.32263613    3.68293810    1.48951900
 H         -3.24375510    3.52886105    0.07796500
