55
wb97x-d4 ma-def2-tzvp(-f) cpcm(dmso) E: -1285.241237122066, G: -1284.81951782
 C         -2.21133590   -2.34223104   -1.03070998
 C         -0.69414502   -2.11425400   -0.89576501
 O         -0.06676800   -3.19307995   -0.23354000
 C         -0.39057401   -0.77590799   -0.22338399
 C         -1.16922998    0.34481001   -0.90936500
 C         -2.66029501   -0.00387700   -0.88837302
 C         -3.52572799    1.06838799   -1.52416694
 O         -3.07801199    1.48286498   -2.81356812
 O         -2.84010911   -1.22461700   -1.62048697
 O         -0.89188302    1.62555206   -0.38112199
 O         -2.72983789   -2.64965105    0.23155300
 H         -2.99565005   -0.13377100    0.14553700
 H         -2.39759493   -3.17067504   -1.72408605
 H         -0.84909302    0.36235201   -1.95538294
 C         -4.07878113   -3.10870695    0.18701300
 H         -0.42528600   -3.21564603    0.66387600
 H         -4.53351307    0.66800600   -1.65412402
 H         -3.57963800    1.92265904   -0.84387898
 H         -1.05365801    1.62335896    0.58842999
 H         -2.33841991    2.08882189   -2.69017911
 H         -4.33266783   -3.44304991    1.19248497
 H         -4.17686415   -3.94586110   -0.51337802
 H         -4.75753880   -2.30513597   -0.11183100
 H         -0.28909501   -2.08442712   -1.90954101
 O         -0.54115701   -0.87948501    1.14606798
 H          0.72286898   -0.54955602   -0.44023800
 H         -0.73422903    0.00233300    1.57901800
 C          4.58416224   -0.63326597   -0.46438000
 C          3.12120795   -1.13292396   -0.66574001
 C          4.56342793    0.89537299   -0.34957999
 C          3.80707097    1.28334999    0.92597502
 C          2.40878296    0.59347302    0.90124202
 N          2.25428295    0.02165500   -0.43379599
 H          5.18994093   -0.95168298   -1.31414402
 H          2.94365692   -1.48559904   -1.68100905
 H          5.58334494    1.28200901   -0.31146300
 H          4.35061598    0.95686799    1.81384599
 H          1.59913397    1.30158496    1.07071900
 H          5.00446081   -1.07561696    0.44074601
 H          2.85286307   -1.91348505    0.04494300
 C          3.82574391    1.47478199   -1.56185603
 H          3.68247795    2.36654305    0.97951800
 H          2.33932209   -0.21855199    1.62368906
 C          2.33684111    1.01977205   -1.49945796
 H          4.28304482    1.12029397   -2.48751712
 H          3.86609292    2.56517601   -1.55594599
 H          2.01157403    0.55555600   -2.42994905
 H          1.66390800    1.83644605   -1.24450803
 O         -3.13942194    0.73697698    2.56921697
 O         -1.02525604    1.42509997    2.32570100
 C         -2.31607294    2.43509412    4.04754496
 C         -2.17626810    1.45104504    2.89646602
 H         -2.07287002    3.44180799    3.69911909
 H         -1.59888506    2.17687988    4.83088398
 H         -3.32494497    2.42212701    4.45887613
