55
wb97x-d4 ma-def2-tzvp(-f) cpcm(dmso) E: -1285.239657543868, G: -1284.81949955
 C         -2.91772890   -1.25191498    0.27462101
 C         -1.56073904   -0.61235100    0.59947401
 O         -1.60959995    0.02079900    1.85193503
 C         -1.17146897    0.39859501   -0.48081800
 C         -1.35877395   -0.11332400   -1.90138400
 C         -2.73985004   -0.76067001   -2.05169296
 C         -2.92010593   -1.45681298   -3.38794494
 O         -1.96246099   -2.48917890   -3.60240602
 O         -2.90895009   -1.76182997   -1.04497504
 O         -1.16321695    0.91694599   -2.85388994
 O         -3.93421698   -0.31538299    0.47028500
 H         -3.51288295    0.01029300   -1.95452905
 H         -3.07625389   -2.12583399    0.91667497
 H         -0.60002798   -0.87466598   -2.09582710
 C         -5.23997784   -0.87829602    0.36282599
 H         -0.76274598   -0.18802200    2.35771298
 H         -3.93816090   -1.85874104   -3.43788505
 H         -2.79187012   -0.73133200   -4.19182920
 H         -1.70387304    1.67231297   -2.58769298
 H         -2.08951712   -3.15131307   -2.91215897
 H         -5.94302511   -0.10583900    0.67290300
 H         -5.33825397   -1.74921596    1.02066898
 H         -5.45802593   -1.17757106   -0.66630602
 H         -0.82705498   -1.42451501    0.59666002
 O         -1.79090500    1.62887096   -0.30851299
 H         -0.01687600    0.57268298   -0.36199099
 H         -1.96306396    1.71490204    0.64438301
 C          3.39056611    1.97151005   -1.35430396
 C          1.87408602    1.63984597   -1.46931803
 C          3.85271192    1.66699803    0.07503700
 C          3.70118904    0.16518900    0.33951199
 C          2.23457408   -0.25223699    0.02625500
 N          1.48850298    0.98588502   -0.21638100
 H          3.54746294    3.02458405   -1.59343803
 H          1.26314497    2.53476691   -1.57949698
 H          4.89491177    1.96517098    0.20223200
 H          4.38023376   -0.40864101   -0.29317799
 H          1.76612604   -0.77527499    0.85731000
 H          3.95456696    1.37159395   -2.07097292
 H          1.66445696    0.95648700   -2.29023194
 C          2.96277809    2.43525100    1.05771899
 H          3.93505812   -0.05919500    1.38196599
 H          2.16497111   -0.86391199   -0.87272698
 C          1.50701201    1.89725494    0.93072701
 H          2.98718190    3.50367999    0.83517498
 H          3.30803895    2.29184008    2.08304000
 H          0.79126197    2.69654393    0.73869997
 H          1.20242405    1.32869601    1.80769598
 O          0.54953903   -2.55416989    2.56856203
 O          0.56233799   -0.41289601    3.21430898
 C          2.32295203   -1.81771898    3.99200392
 C          1.03679895   -1.59423304    3.20489097
 H          3.16826701   -1.62727904    3.32281399
 H          2.39189696   -2.84927702    4.33942413
 H          2.39657402   -1.12905502    4.83437586
