55
wb97x-d4 ma-def2-tzvp(-f) cpcm(dmso) E: -1285.240000993077, G: -1284.81943683
 C         -2.02606893    2.40122199   -0.58129102
 C         -0.51773298    2.10200191   -0.71264601
 O         -0.06031600    2.33016992   -2.02772689
 C         -0.19745600    0.68810701   -0.22583300
 C         -0.78245199    0.46654299    1.15611696
 C         -2.29660296    0.68355000    1.04181600
 C         -3.04267097    0.39395899    2.33628201
 O         -2.90058208   -0.98011100    2.68257403
 O         -2.50864291    2.05509806    0.70312798
 O         -0.40902799   -0.81933701    1.61415195
 O         -2.69811797    1.72730803   -1.60404098
 H         -2.70550108    0.03783700    0.25995001
 H         -2.19476390    3.48062897   -0.66429901
 H         -0.38760501    1.24220896    1.82625306
 C         -4.05210400    2.14999890   -1.75915098
 H         -0.56354100    1.74198198   -2.60684204
 H         -2.62959409    0.98911703    3.15568805
 H         -4.09690189    0.66555297    2.20907497
 H         -1.14041698   -1.13593698    2.17699695
 H         -3.24323606   -1.52639198    1.91944396
 H         -4.44512415    1.63513398   -2.63503408
 H         -4.09868002    3.23311400   -1.91766703
 H         -4.64805317    1.88531601   -0.88160998
 H          0.00480400    2.80920196   -0.06508500
 O         -0.52844203   -0.26924300   -1.16286802
 H          0.96253997    0.65174299   -0.09765900
 H         -1.03337801   -1.02597106   -0.77290702
 C          4.70633602    0.55908501   -0.86763400
 C          3.24611211    1.10113704   -0.85800999
 C          4.82833099   -0.53472602    0.19973700
 C          3.92709994   -1.71053195   -0.19181100
 C          2.48263693   -1.17367196   -0.41846901
 N          2.47791505    0.22020800    0.02482800
 H          5.39468813    1.38006902   -0.66093498
 H          3.18512702    2.11177301   -0.45585299
 H          5.86487579   -0.86775398    0.27616000
 H          4.28352499   -2.18188691   -1.10896504
 H          1.74296200   -1.71940899    0.16487999
 H          4.94410276    0.15351900   -1.85289395
 H          2.79059100    1.07493997   -1.84688401
 C          4.35699415    0.02858000    1.54519701
 H          3.92096400   -2.46283007    0.59933400
 H          2.19829202   -1.19004905   -1.46958995
 C          2.84216094    0.37107801    1.43571997
 H          4.92301178    0.92728800    1.79775798
 H          4.50289488   -0.70191997    2.34261107
 H          2.63121295    1.39740300    1.73444104
 H          2.21996307   -0.31035301    2.01342797
 O         -2.09712410   -2.39462399   -0.75471002
 O         -3.80181193   -2.47460389    0.70513499
 C         -3.89211106   -3.90612793   -1.18841898
 C         -3.19945407   -2.84157705   -0.34485501
 H         -4.29678392   -4.69269419   -0.54894799
 H         -3.21116900   -4.33368397   -1.92423999
 H         -4.73166895   -3.44144011   -1.71382904
