55
wb97x-d4 ma-def2-tzvp(-f) cpcm(dmso) E: -1285.241389808725, G: -1284.81937001
 C         -2.08241892   -2.95263410   -0.90181500
 C         -0.66841799   -2.41523004   -0.64406502
 O          0.17711900   -3.41179490   -0.10986100
 C         -0.70319200   -1.15962994    0.21660800
 C         -1.72846699   -0.12496000   -0.25488701
 C         -3.07434797   -0.81806803   -0.49423701
 C         -4.10224581    0.10073200   -1.12784302
 O         -3.68603611    0.59705698   -2.39669299
 O         -2.91567397   -1.92415094   -1.38843000
 O         -1.89098406    0.84661698    0.75169498
 O         -2.55792499   -3.52502108    0.27988800
 H         -3.46673203   -1.16525400    0.46807200
 H         -2.05445695   -3.70087409   -1.70179403
 H         -1.38321495    0.31889600   -1.19361198
 C         -3.77248311   -4.25333691    0.10594000
 H         -0.22684000   -3.71901488    0.71263301
 H         -5.04952812   -0.44256699   -1.21840703
 H         -4.25512886    0.96552801   -0.48181999
 H         -1.41286600    1.68986499    0.47332901
 H         -3.55909705   -0.16243701   -2.97807693
 H         -4.60185719   -3.57987690   -0.12666300
 H         -3.97165990   -4.76368523    1.04755998
 H         -3.66564393   -4.99104214   -0.69703698
 H         -0.25842601   -2.13432789   -1.61693597
 O         -0.84308398   -1.44626498    1.56499803
 H          0.35763100   -0.66513401    0.08332700
 H         -1.18231499   -0.62823701    1.97036302
 C          3.11798906    1.34696698    1.70747805
 C          1.72215998    0.69431001    1.48978198
 C          3.95934892    1.13456595    0.44504800
 C          3.20503712    1.71832097   -0.75459999
 C          1.87544096    0.93000197   -0.93988597
 N          1.76417100    0.00938900    0.19552800
 H          3.60857296    0.89633101    2.57215500
 H          1.49451900   -0.04783400    2.25449204
 H          4.92669582    1.62837696    0.55402797
 H          2.98552489    2.77402210   -0.58437401
 H          1.87852705    0.33197600   -1.85088503
 H          2.98791909    2.41242099    1.90580404
 H          0.92951500    1.43908596    1.45577002
 C          4.16188622   -0.36929101    0.22618800
 H          3.80358291    1.63582301   -1.66333997
 H          1.00670505    1.58761299   -0.93008500
 C          2.76630306   -1.05861294    0.15597200
 H          4.73826218   -0.80258799    1.04528403
 H          4.70602512   -0.54570901   -0.70357698
 H          2.58872509   -1.71598995    1.00574005
 H          2.63183188   -1.61829698   -0.76844400
 O         -0.69853002    2.98032904   -0.11857100
 O         -0.14540000    3.54862189    1.97309101
 C          0.55503100    4.97670889    0.17719001
 C         -0.14742500    3.74564910    0.73794800
 H         -0.18500800    5.63076115   -0.29190001
 H          1.26358795    4.67475080   -0.59760499
 H          1.07729006    5.52714014    0.95953399
