55
wb97x-d4 ma-def2-tzvp(-f) cpcm(dmso) E: -1285.241554631678, G: -1284.8192161700001
 C         -2.02491307   -2.40324306   -0.64592999
 C         -0.52733898   -2.09537697   -0.48248500
 O          0.11015800   -3.05616498    0.33276600
 C         -0.30834800   -0.67289799    0.03409500
 C         -1.09167004    0.31840000   -0.82443202
 C         -2.56986094   -0.08507600   -0.87525100
 C         -3.37875295    0.80442601   -1.81278801
 O         -3.55548096    2.11790490   -1.29433596
 O         -2.66023707   -1.40611696   -1.41998601
 O         -0.90253198    1.66643596   -0.42431101
 O         -2.59589505   -2.54482889    0.62071598
 H         -3.00464296   -0.05310800    0.12925801
 H         -2.14965701   -3.32750010   -1.22204697
 H         -0.69926798    0.24171500   -1.84375203
 C         -3.92092609   -3.07028389    0.58284998
 H         -0.25866699   -2.95583797    1.22083700
 H         -2.89055705    0.83371598   -2.79567194
 H         -4.37298393    0.37062001   -1.93692303
 H         -1.19029903    1.76174295    0.51333898
 H         -2.67005801    2.44635510   -1.07929695
 H         -4.22752619   -3.22843599    1.61630595
 H         -3.94013691   -4.02441597    0.04421100
 H         -4.60802603   -2.36841512    0.10229800
 H         -0.07835900   -2.17147303   -1.47550702
 O         -0.51047403   -0.61465502    1.40134597
 H          0.80106801   -0.43743899   -0.16653000
 H         -0.91623998    0.25220799    1.70299494
 C          4.64868116   -0.75543499   -0.04357200
 C          3.15199208   -1.19048798   -0.02890300
 C          4.73654890    0.65477401   -0.63648498
 C          4.02435493    1.63250601    0.30629501
 C          2.58131099    1.10183096    0.57256901
 N          2.37329292    0.00055700   -0.36394599
 H          5.22013807   -1.46601605   -0.64255899
 H          2.93700004   -1.95296299   -0.77632302
 H          5.78139400    0.94629002   -0.75705498
 H          4.55557108    1.71230102    1.25582004
 H          1.82280505    1.86055505    0.38582700
 H          5.04650402   -0.76551998    0.97288603
 H          2.83663106   -1.54168200    0.95265299
 C          4.02841616    0.66535598   -1.99578500
 H          3.97417307    2.62578201   -0.14358801
 H          2.46845388    0.70942098    1.58258605
 C          2.50946093    0.40406200   -1.76228094
 H          4.44183588   -0.10969900   -2.64378095
 H          4.15069199    1.62925994   -2.49200892
 H          2.12970400   -0.39950901   -2.39255810
 H          1.91100800    1.30180705   -1.91114295
 O         -3.47786999    0.64006603    2.52454901
 O         -1.52472198    1.67657495    2.18643999
 C         -3.27133393    2.92606592    3.20965505
 C         -2.74116993    1.63684702    2.60137200
 H         -4.24308777    2.77002811    3.67716908
 H         -3.36900997    3.67444801    2.41791296
 H         -2.56115294    3.31452298    3.94248509
