55
wb97x-d4 ma-def2-tzvp(-f) cpcm(dmso) E: -1285.240820542543, G: -1284.81920655
 C         -2.10563397   -2.23882103   -0.33941799
 C         -0.58320600   -2.03209901   -0.27383000
 O          0.01786100   -2.90166903    0.66267902
 C         -0.24317400   -0.56816602    0.00588800
 C         -0.98151201    0.35091299   -0.97174197
 C         -2.48693299    0.05448000   -0.89719999
 C         -3.27586389    0.89104402   -1.87732995
 O         -4.66762400    0.68120199   -1.63722897
 O         -2.69080496   -1.32149506   -1.23874402
 O         -0.65526599    1.71230197   -0.79767001
 O         -2.63027191   -2.13860607    0.95169401
 H         -2.86229396    0.23899400    0.11398300
 H         -2.32594991   -3.22660089   -0.76073301
 H         -0.64687002    0.07477600   -1.97730505
 C         -4.00051498   -2.52561212    1.02987599
 H         -0.30531201   -2.63752699    1.53473997
 H         -3.01308203    1.94181800   -1.73085797
 H         -3.00922203    0.59799498   -2.90007305
 H         -0.97036099    2.00950599    0.08837200
 H         -5.16002512    1.26014900   -2.22937489
 H         -4.13762903   -3.53615189    0.62863398
 H         -4.63740921   -1.82765102    0.47971499
 H         -4.27277517   -2.51194906    2.08475900
 H         -0.18708000   -2.29673100   -1.25658596
 O         -0.37528801   -0.29139200    1.35377204
 H          0.87672198   -0.44466901   -0.26154399
 H         -0.72685897    0.62693501    1.53677905
 C          3.98838305    1.30617595   -1.73941398
 C          2.54928207    0.70804101   -1.69258106
 C          4.76942587    0.79475701   -0.52377599
 C          4.71598816   -0.73711300   -0.51417500
 C          3.23606205   -1.17869997   -0.30362999
 N          2.42236710    0.03317900   -0.40071800
 H          3.93471909    2.39639807   -1.72517395
 H          1.78232598    1.47822297   -1.75025201
 H          5.80606079    1.13219702   -0.57696301
 H          5.08881712   -1.13429499   -1.46005499
 H          3.07268190   -1.61325395    0.68164098
 H          4.47470713    0.99926299   -2.66667604
 H          2.38629389   -0.03252600   -2.47484994
 C          4.11033392    1.32459295    0.75489300
 H          5.32871103   -1.14248502    0.29257101
 H          2.90415406   -1.87807798   -1.07017100
 C          2.60124302    0.93538499    0.73314399
 H          4.19731903    2.41062498    0.81428301
 H          4.59146404    0.89459598    1.63526905
 H          1.95552897    1.79840100    0.57741600
 H          2.29636407    0.41337001    1.63942099
 O         -3.39482594    3.04153609    1.61903405
 O         -1.37889099    2.09125710    1.73504102
 C         -3.11269093    1.15502906    3.07273507
 C         -2.61677909    2.18465590    2.06838202
 H         -2.99103808    0.15395400    2.65040398
 H         -4.15944910    1.31992304    3.32526302
 H         -2.50218105    1.20391595    3.97768688
