55
wb97x-d4 ma-def2-tzvp(-f) cpcm(dmso) E: -1285.240254544972, G: -1284.81912641
 C         -2.09281492   -2.31467199   -0.77454603
 C         -0.60867000   -1.92502701   -0.67480999
 O          0.11981500   -2.83257389    0.12413900
 C         -0.44701499   -0.48689401   -0.19254600
 C         -1.29219902    0.46195200   -1.04503596
 C         -2.75020003   -0.02569300   -0.99865001
 C         -3.66294694    0.83296102   -1.85385299
 O         -5.03766584    0.47948200   -1.71006596
 O         -2.80492806   -1.35590994   -1.52519000
 O         -1.15617299    1.82057297   -0.68799800
 O         -2.60380411   -2.48215890    0.51522702
 H         -3.10547304   -0.02011600    0.03831400
 H         -2.18996310   -3.24781609   -1.34145904
 H         -0.94771200    0.36676601   -2.08082700
 C         -3.89531112   -3.08704901    0.52947003
 H         -0.20497400   -2.73451400    1.02929103
 H         -3.50216699    1.88379002   -1.60186303
 H         -3.41373396    0.68400902   -2.90746188
 H         -1.00966895    1.92217004    0.27483100
 H         -5.32127094    0.74042201   -0.82590902
 H         -4.64132881   -2.43042302    0.07333300
 H         -4.15213680   -3.25906897    1.57422996
 H         -3.87709093   -4.04311323   -0.00577800
 H         -0.20000000   -1.99184799   -1.68542898
 O         -0.64083600   -0.41534501    1.17042100
 H          0.67084301   -0.21020600   -0.40805700
 H         -0.56711602    0.53239000    1.49878204
 C          4.38628483   -0.48289099   -1.27183902
 C          2.84949589   -0.67706102   -1.42371500
 C          4.63714314    0.66428602   -0.28648800
 C          4.13437080    0.24867800    1.10055900
 C          2.65999508   -0.23428200    0.96563601
 N          2.21848297    0.13485900   -0.37961501
 H          4.81649017   -0.25609300   -2.24868011
 H          2.48252106   -0.32509100   -2.38723993
 H          5.70281887    0.89606100   -0.24529301
 H          4.73911810   -0.56350100    1.50714195
 H          2.00320196    0.24998900    1.68720698
 H          4.84192991   -1.40408397   -0.90346098
 H          2.55237603   -1.71480501   -1.27721298
 C          3.84732699    1.89514005   -0.74481899
 H          4.18820000    1.09323502    1.79026997
 H          2.57004309   -1.31538296    1.06007802
 C          2.32831907    1.57410097   -0.63546199
 H          4.10093307    2.14592600   -1.77674699
 H          4.07634592    2.75815606   -0.11756700
 H          1.79309404    1.79915702   -1.55684197
 H          1.85263705    2.09424710    0.19475099
 O         -0.94681501    3.52186894    3.51069999
 O         -0.38320699    2.05280709    1.93151295
 C         -2.49792099    1.76711798    3.00912905
 C         -1.18881595    2.52142000    2.81646895
 H         -2.93707895    1.51328003    2.04214811
 H         -3.20384908    2.35125589    3.59833193
 H         -2.28889608    0.82952303    3.53248906
