55
wb97x-d4 ma-def2-tzvp(-f) cpcm(dmso) E: -1285.243290829166, G: -1284.82312929
 C         -2.06386304    2.72209001   -0.13374600
 C         -0.64322501    2.15847993   -0.30819601
 O         -0.07404600    2.55188704   -1.53911602
 C         -0.61443102    0.64146900   -0.12825000
 C         -1.30710995    0.24560100    1.17840803
 C         -2.72338295    0.83360797    1.18154395
 C         -3.45602012    0.56069303    2.47983694
 O         -4.77595520    1.09703898    2.45957994
 O         -2.62927198    2.26009893    1.07533896
 O         -1.28905296   -1.14273798    1.42910898
 O         -2.83084893    2.38561106   -1.25073802
 H         -3.29992294    0.43494800    0.33962399
 H         -2.01534009    3.81163311   -0.02377700
 H         -0.75179100    0.71882898    1.99521804
 C         -4.08921194    3.05626607   -1.28635800
 H         -0.57250202    2.10316992   -2.23523808
 H         -3.55078602   -0.51449603    2.62720203
 H         -2.88063097    0.98219299    3.31391311
 H         -1.57241201   -1.63639200    0.63122499
 H         -4.69895077    2.03873992    2.26167488
 H         -4.73940277    2.71431208   -0.47627199
 H         -4.54722977    2.81795812   -2.24574804
 H         -3.94865894    4.14009380   -1.20590198
 H         -0.03509100    2.60612392    0.48093200
 O         -1.06250095    0.01980200   -1.27553999
 H          0.50750500    0.36845499    0.01713300
 H         -1.24611402   -0.95940202   -1.13812900
 C          3.77215600   -1.00310504   -1.39169204
 C          2.32819796   -0.41766000   -1.37200701
 C          4.43823719   -0.70462000   -0.04296100
 C          3.69611907   -1.47495997    1.05417395
 C          2.18077493   -1.13745296    0.95261002
 N          2.06190801   -0.02204100    0.01033600
 H          4.33129597   -0.54786199   -2.21076012
 H          2.23672795    0.47077700   -1.99563897
 H          5.48772001   -1.00347400   -0.06829100
 H          3.83124709   -2.55089402    0.93170899
 H          1.76692700   -0.82191199    1.90956998
 H          3.73235798   -2.08082795   -1.56257498
 H          1.58405995   -1.15899301   -1.65951896
 C          4.32700586    0.79699302    0.24535300
 H          4.07598400   -1.19243395    2.03809810
 H          1.59712195   -1.96433997    0.55195302
 C          2.82102394    1.15958595    0.41871500
 H          4.75353384    1.37384295   -0.57753402
 H          4.86447382    1.05659199    1.15882397
 H          2.52708912    1.99425995   -0.21676400
 H          2.56786394    1.38098502    1.45501304
 O         -1.76919699   -2.46856904   -0.92087001
 O          0.35319901   -3.10697389   -1.20926201
 C         -1.34632897   -4.79770088   -1.15030301
 C         -0.85977399   -3.35809398   -1.09406602
 H         -1.84073102   -5.04760790   -0.20799400
 H         -0.52117002   -5.48773289   -1.32361102
 H         -2.08757496   -4.90185022   -1.94623697
