55
wb97x-d4 ma-def2-tzvp(-f) cpcm(dmso) E: -1285.24174111035, G: -1284.8190085600002
 C         -2.00267506   -2.46904397    0.54764700
 C         -0.51325703   -2.08185101    0.55536401
 O          0.10397700   -2.43481994    1.77558601
 C         -0.32234800   -0.59937602    0.22950700
 C         -1.07615197   -0.25826001   -1.05512297
 C         -2.55413103   -0.63932002   -0.89042300
 C         -3.36164498   -0.39400700   -2.15962195
 O         -3.54402804    0.99186897   -2.42109489
 O         -2.62664390   -2.04772210   -0.64771003
 O         -0.88527900    1.07695699   -1.49224901
 O         -2.61526299   -1.94172597    1.68688595
 H         -3.00215006   -0.08452800   -0.05969300
 H         -2.09575105   -3.56129289    0.54224199
 H         -0.66756499   -0.89789701   -1.84411502
 C         -3.92421389   -2.46296501    1.90780699
 H         -0.30038500   -1.88505304    2.46050692
 H         -2.86927605   -0.89257002   -3.00470591
 H         -4.35377789   -0.83241802   -2.03420901
 H         -1.13214004    1.69669902   -0.76669800
 H         -2.65876293    1.38548100   -2.41979194
 H         -4.26646090   -2.06365609    2.86197090
 H         -3.89788795   -3.55749011    1.95535696
 H         -4.61025620   -2.15134597    1.11545098
 H         -0.03091900   -2.67090392   -0.22779100
 O         -0.58862901    0.17360100    1.34377897
 H          0.79730999   -0.47358999   -0.02063400
 H         -0.98322099    1.07143402    1.11845696
 C          4.36438322    0.07355700    1.29974401
 C          2.81888700   -0.13314401    1.31441200
 C          4.78320599    0.49554601   -0.11246700
 C          3.94180703    1.70446706   -0.53560799
 C          2.45509601    1.25256097   -0.65619302
 N          2.38467908   -0.08868400   -0.08026000
 H          4.86310291   -0.85573798    1.58170998
 H          2.53544497   -1.09788001    1.73164403
 H          5.84361315    0.75343001   -0.12771501
 H          4.02810097    2.50307488    0.20365000
 H          2.12545395    1.19149601   -1.69184899
 H          4.62934017    0.84001702    2.02954793
 H          2.30297208    0.66210198    1.85063100
 C          4.51059103   -0.66357398   -1.07832396
 H          4.27441311    2.09241199   -1.49965203
 H          1.78093898    1.90133500   -0.09824400
 C          3.02487612   -1.10584199   -0.91285402
 H          5.16133213   -1.51200795   -0.86142498
 H          4.68996286   -0.34883100   -2.10812712
 H          2.93495798   -2.06317592   -0.40094799
 H          2.50123692   -1.14986002   -1.86722600
 O         -3.55883002    1.98418105    1.57373905
 O         -1.57520497    2.47781110    0.66928101
 C         -3.40849710    3.87971997    0.11015100
 C         -2.83152795    2.68533397    0.85284603
 H         -4.47027683    4.00326014    0.32054999
 H         -3.26122808    3.73852992   -0.96365499
 H         -2.86729598    4.78369808    0.39994100
