55
wb97x-d4 ma-def2-tzvp(-f) cpcm(dmso) E: -1285.241801189926, G: -1284.81890969
 C         -2.11761308    2.41561198   -0.46765199
 C         -0.62954801    2.02032709   -0.49231499
 O         -0.05447200    2.25127912   -1.76050305
 C         -0.42938900    0.57808298   -0.02984600
 C         -1.12934506    0.37204999    1.31377804
 C         -2.61345005    0.72789103    1.15277100
 C         -3.38834691    0.59135401    2.45801806
 O         -3.56252193   -0.76859403    2.83625889
 O         -2.70328689    2.10575390    0.78038597
 O         -0.92851597   -0.90753502    1.88830304
 O         -2.76966405    1.79328001   -1.53491902
 H         -3.07419705    0.09333800    0.38772899
 H         -2.20692706    3.50431490   -0.55603498
 H         -0.70018101    1.09424996    2.01613903
 C         -4.07870913    2.31113505   -1.76573002
 H         -0.48635501    1.64672995   -2.37890792
 H         -2.87396193    1.15629601    3.24638510
 H         -4.38299513    1.02093995    2.32241106
 H         -1.01135695   -1.61438894    1.20815599
 H         -2.67827892   -1.16586006    2.81776404
 H         -4.74549007    2.07987499   -0.93057901
 H         -4.45197916    1.83440697   -2.67148399
 H         -4.04127979    3.39666510   -1.91053402
 H         -0.11781500    2.67832398    0.21307901
 O         -0.76239300   -0.29305500   -1.04388797
 H          0.71208698    0.46485099    0.17737700
 H         -0.81954098   -1.24826896   -0.72350597
 C          3.90054202   -1.01934505   -1.31057096
 C          2.46494007   -0.41837701   -1.24977899
 C          4.63402987   -0.65485400   -0.01472700
 C          3.94334793   -1.35906196    1.15781200
 C          2.42597008   -1.01796699    1.11170805
 N          2.26440191    0.04809000    0.12082600
 H          4.41955090   -0.61201203   -2.17967200
 H          2.34817696    0.43760100   -1.91274297
 H          5.67919397   -0.96291500   -0.07623200
 H          4.06900215   -2.44080591    1.09013999
 H          2.05688405   -0.65482402    2.06948495
 H          3.84578609   -2.10388398   -1.42216396
 H          1.69903398   -1.15900004   -1.47692001
 C          4.54398918    0.86176300    0.19470300
 H          4.37005091   -1.02348304    2.10505605
 H          1.82104802   -1.86431801    0.78899097
 C          3.05168891    1.24208903    0.43308100
 H          4.92415714    1.38805902   -0.68301898
 H          5.13339806    1.17006600    1.05961204
 H          2.72599506    2.04961491   -0.22191000
 H          2.85567093    1.51094401    1.47046900
 O         -0.95380503   -2.68991303   -0.11624800
 O         -2.29701710   -4.45261812    0.13136700
 C         -2.82559490   -2.86483192   -1.58573699
 C         -1.98084295   -3.39629006   -0.43669200
 H         -3.63132000   -3.55426311   -1.83433604
 H         -2.19463205   -2.70168304   -2.46267509
 H         -3.24811697   -1.89684105   -1.30247903
