55
wb97x-d4 ma-def2-tzvp(-f) cpcm(dmso) E: -1285.240447830539, G: -1284.81838625
 C         -2.04961300    2.12334991   -0.42449099
 C         -0.54230899    1.82212400   -0.48604199
 O          0.00586500    2.16174006   -1.74229002
 C         -0.25954601    0.36504501   -0.11860200
 C         -0.94293600   -0.00082200    1.20242405
 C         -2.44171596    0.31809601    1.08693004
 C         -3.18711400    0.01831400    2.36621189
 O         -4.58554888    0.16764900    2.11975002
 O         -2.58485889    1.71687806    0.81669301
 O         -0.67034698   -1.31949198    1.61944497
 O         -2.67668700    1.50737906   -1.51126897
 H         -2.89159608   -0.25589401    0.27184400
 H         -2.21113610    3.20706701   -0.46044299
 H         -0.52745402    0.66316700    1.96759701
 C         -4.04247904    1.88865304   -1.66122496
 H         -0.37909701    1.55312705   -2.38740802
 H         -2.95681596   -1.00468194    2.67411399
 H         -2.85406494    0.70841801    3.15099096
 H         -1.06530702   -1.95052004    0.97194898
 H         -5.05549002   -0.08556800    2.92189288
 H         -4.38505697    1.46924102   -2.60667396
 H         -4.13594818    2.98020506   -1.68809903
 H         -4.65258408    1.49283600   -0.84475601
 H         -0.06271300    2.46442890    0.25595900
 O         -0.50423902   -0.45922899   -1.20114303
 H          0.87836701    0.31666899    0.09886200
 H         -0.91298401   -1.33445895   -0.94589698
 C          4.28395414   -0.96767402   -1.07131505
 C          2.78682494   -0.53990400   -1.13223600
 C          4.91832876   -0.33827600    0.17475700
 C          4.27042007   -0.94968802    1.42142296
 C          2.72515988   -0.81410098    1.28882599
 N          2.48064709    0.07879200    0.15504400
 H          4.78711700   -0.62810397   -1.97796094
 H          2.60145211    0.19885200   -1.91088402
 H          5.99413586   -0.52159500    0.18121199
 H          4.52844381   -2.00563693    1.51631904
 H          2.27321100   -0.37469599    2.17699909
 H          4.35816813   -2.05585098   -1.02534699
 H          2.12041998   -1.39018202   -1.27344501
 C          4.64144516    1.16958702    0.16337600
 H          4.61342812   -0.43213400    2.31938791
 H          2.24493003   -1.76657701    1.07178998
 C          3.10674691    1.39148295    0.31861401
 H          4.98610878    1.61101305   -0.77374500
 H          5.15846682    1.66601706    0.98600900
 H          2.71109796    2.06012511   -0.44473299
 H          2.84311509    1.76715004    1.30658197
 O         -1.63912594   -2.69467807   -0.44116300
 O         -3.63156295   -3.31486392    0.34818000
 C         -3.53659105   -2.31616092   -1.83049798
 C         -2.91413093   -2.82426810   -0.53851599
 H         -3.37053299   -1.23783302   -1.90643799
 H         -4.60581589   -2.52202392   -1.86256802
 H         -3.04244804   -2.78249598   -2.68599391
