55
wb97x-d4 ma-def2-tzvp(-f) cpcm(dmso) E: -1285.236745056155, G: -1284.8174563300001
 C         -2.00316405   -2.71233797   -0.63554001
 C         -0.53216499   -2.37074304   -0.34796801
 O          0.17945001   -3.49781609    0.11511900
 C         -0.41735500   -1.18328094    0.59957099
 C         -1.29356205   -0.01695900    0.17015700
 C         -2.72357702   -0.50695300   -0.08275100
 C         -3.59974909    0.58949703   -0.67635399
 O         -3.61330104    1.72711802    0.17552200
 O         -2.70894599   -1.56077898   -1.04453194
 O         -1.25639403    0.93537802    1.22116101
 O         -2.54501700   -3.30944300    0.50395900
 H         -3.15078807   -0.86016798    0.86246401
 H         -2.06151199   -3.39827490   -1.48794794
 H         -0.90191799    0.40924299   -0.76020402
 C         -3.83457589   -3.87995195    0.28334999
 H         -0.28282699   -3.82561398    0.89825499
 H         -3.19908404    0.85963899   -1.65909100
 H         -4.61389494    0.19617900   -0.80985099
 H         -2.05219102    1.48944497    1.08725798
 H         -3.40399790    2.53080297   -0.39992100
 H         -4.10191679   -4.41564178    1.19341695
 H         -3.80484509   -4.57842588   -0.56016701
 H         -4.57715321   -3.10220790    0.08617900
 H         -0.08547900   -2.07645893   -1.30036902
 O         -0.61111701   -1.54821205    1.92292202
 H          0.69121802   -0.80675697    0.50300199
 H         -0.88518202   -0.74367499    2.39408803
 C          3.65997601    0.95184797    2.06355405
 C          2.18340111    0.51336998    1.84255195
 C          4.45388889    0.64566201    0.78888798
 C          3.74178195    1.28903604   -0.40715200
 C          2.35778594    0.59996498   -0.59039801
 N          2.14983106   -0.24514200    0.58909798
 H          4.08508205    0.41280901    2.91222596
 H          1.82373095   -0.13333800    2.64286804
 H          5.46821022    1.03863394    0.87629497
 H          3.60235190    2.35787511   -0.23462500
 H          2.33055401   -0.04349500   -1.46901405
 H          3.68468690    2.01899099    2.28961802
 H          1.51143897    1.36309004    1.73293900
 C          4.49338102   -0.87299001    0.58432901
 H          4.32698202    1.16339695   -1.31941402
 H          1.54543996    1.32395804   -0.64305300
 C          3.03414798   -1.41420805    0.60870397
 H          5.06782579   -1.35605204    1.37631297
 H          4.96097183   -1.11421299   -0.37222201
 H          2.81847191   -1.97847497    1.51530302
 H          2.80873704   -2.02753901   -0.26236299
 O         -3.12320495    3.77781200   -1.32821798
 O         -1.12905097    2.86033010   -1.76720595
 C         -1.66694200    4.96423912   -2.78376007
 C         -1.98043001    3.76631308   -1.89242196
 H         -1.76319897    5.88701200   -2.20629096
 H         -2.39492512    5.01047707   -3.59801602
 H         -0.66188598    4.89703321   -3.20026207
