55
wb97x-d4 ma-def2-tzvp(-f) cpcm(dmso) E: -1285.244687660075, G: -1284.8230901200002
 C         -2.07879591   -2.32810497    0.10200700
 C         -0.56100702   -2.09661889    0.17556401
 O          0.01208000   -2.74460602    1.29128206
 C         -0.24891201   -0.59886402    0.17013299
 C         -0.94528198    0.09580000   -0.99793702
 C         -2.44780302   -0.21270300   -0.96131498
 C         -3.19961309    0.34608501   -2.15492010
 O         -2.68752694   -0.12067400   -3.39990807
 O         -2.62931705   -1.63500905   -0.99915099
 O         -0.65118402    1.46972299   -1.05809295
 O         -2.65083694   -1.94451594    1.31712902
 H         -2.89614296    0.19588600   -0.05010400
 H         -2.28694797   -3.38578606   -0.09772900
 H         -0.54920900   -0.36277401   -1.90994203
 C         -4.02963018   -2.29188395    1.42223001
 H         -0.26213101   -2.23956704    2.06955600
 H         -4.25904083    0.08499400   -2.05221200
 H         -3.10915804    1.43251503   -2.16117501
 H         -1.26208496    1.99175298   -0.46976000
 H         -2.77163601   -1.08183897   -3.40624189
 H         -4.33505487   -2.06631494    2.44350195
 H         -4.17279291   -3.35979700    1.22265100
 H         -4.63643122   -1.70896494    0.72380698
 H         -0.12845600   -2.54955411   -0.71917301
 O         -0.39087901   -0.03627000    1.42205298
 H          0.88312602   -0.52754098   -0.07560700
 H         -1.13207304    0.64119703    1.50271499
 C          4.10252285    1.36389899    0.66108698
 C          2.57760906    1.05298305    0.60263598
 C          4.81922007    0.47208300   -0.35919300
 C          4.14891291    0.64033002   -1.72789800
 C          2.69129705    0.09795700   -1.63656199
 N          2.43005204   -0.14758600   -0.21735400
 H          4.48343706    1.16954803    1.66550303
 H          2.15793896    0.84912300    1.58706105
 H          5.87326097    0.74784797   -0.42301801
 H          4.13424492    1.69328105   -2.01563811
 H          2.56991005   -0.84549201   -2.16787195
 H          4.25948715    2.41944790    0.43371001
 H          2.01062894    1.85129702    0.12662500
 C          4.68278503   -0.98868901    0.08237200
 H          4.68992376    0.08395300   -2.49486399
 H          1.96173298    0.82011002   -2.00029492
 C          3.17297292   -1.29467297    0.30881801
 H          5.22658682   -1.16570497    1.01168096
 H          5.08583021   -1.65594196   -0.68192703
 H          2.92688394   -1.39429295    1.36494195
 H          2.84939098   -2.18750811   -0.22481599
 O         -2.30602002    1.58441401    2.04532194
 O         -2.29091907    3.00929189    0.32449201
 C         -3.81533504    3.42379904    2.11526108
 C         -2.71283007    2.62007189    1.44579005
 H         -4.77210093    2.94138503    1.89357495
 H         -3.84565306    4.44414091    1.73306203
 H         -3.68502998    3.42836404    3.19814110
