55
wb97x-d4 ma-def2-tzvp(-f) cpcm(dmso) E: -1285.244461245792, G: -1284.8229325300001
 C         -2.51344800   -1.95531404    0.29760599
 C         -1.06981695   -1.49044299    0.53642899
 O         -0.78399599   -1.30317795    1.90180802
 C         -0.73803598   -0.28462300   -0.34226400
 C         -1.05252600   -0.58527201   -1.80331802
 C         -2.50729895   -1.05908096   -1.92607296
 C         -2.86114001   -1.50702500   -3.33222389
 O         -2.05462098   -2.59372807   -3.77767611
 O         -2.72376609   -2.19391108   -1.08077705
 O         -0.81238800    0.55125701   -2.61430502
 O         -3.40123510   -1.01537895    0.82162398
 H         -3.17652893   -0.23979300   -1.63905203
 H         -2.66649699   -2.92867708    0.77791399
 H         -0.39366600   -1.38050497   -2.15777397
 C         -4.74740791   -1.48479795    0.86516398
 H         -1.18353403   -0.46203899    2.20623589
 H         -3.92219710   -1.77957201   -3.35796595
 H         -2.69495296   -0.68235803   -4.02570295
 H         -1.18274796    1.31413805   -2.14853811
 H         -2.18902802   -3.32428908   -3.16165090
 H         -4.80526495   -2.43297696    1.41158795
 H         -5.14826298   -1.62325203   -0.14280000
 H         -5.33008289   -0.72659397    1.38730001
 H         -0.43440101   -2.31014299    0.18914901
 O         -1.29762805    0.92661601    0.00032400
 H          0.42757100   -0.16848999   -0.28919500
 H         -1.33661902    1.06651795    0.99861300
 C          3.30696511    2.30888200   -0.30984300
 C          1.85491097    1.76299798   -0.43425700
 C          4.27997780    1.12720799   -0.38555101
 C          3.97992492    0.31363499   -1.64981306
 C          2.55880904   -0.30843699   -1.51468503
 N          1.94459999    0.30509999   -0.33546799
 H          3.42556095    2.83494401    0.63974702
 H          1.21357405    2.11525702    0.37264299
 H          5.30916023    1.48997700   -0.40980801
 H          4.02006388    0.95647901   -2.53142691
 H          2.59550810   -1.38474500   -1.34955800
 H          3.49424696    3.01834702   -1.11768699
 H          1.40802705    2.00251293   -1.39808702
 C          4.06517315    0.23247699    0.84033102
 H          4.71099281   -0.48634800   -1.77744603
 H          1.93353200   -0.09189700   -2.37993193
 C          2.55560493   -0.14021400    0.92062902
 H          4.35551023    0.75251001    1.75488102
 H          4.66843605   -0.67370200    0.75648898
 H          2.04360008    0.37486801    1.73152804
 H          2.40396404   -1.21539700    1.01092505
 O         -1.56992805    1.24468994    2.56749701
 O          0.53624701    1.97862601    2.71755004
 C         -0.90893698    2.26578999    4.60975122
 C         -0.60139602    1.81012905    3.19186211
 H         -0.10919800    2.89040995    5.00670910
 H         -1.01897895    1.38137603    5.24402189
 H         -1.85643303    2.80743599    4.63456392
