55
wb97x-d4 ma-def2-tzvp(-f) cpcm(dmso) E: -1285.246788102969, G: -1284.8261592600002
 C         -2.05357003   -2.42999506   -1.13119495
 C         -0.60337698   -1.94437695   -0.96653497
 O          0.19620000   -2.89812493   -0.29930499
 C         -0.54254800   -0.57872897   -0.28800499
 C         -1.46959305    0.42023599   -0.98998302
 C         -2.87796307   -0.18531400   -1.03506100
 C         -3.85902190    0.69144100   -1.78768396
 O         -5.16411877    0.11906700   -1.80610394
 O         -2.83096600   -1.42673397   -1.75094700
 O         -1.44116998    1.70120299   -0.41464400
 O         -2.55772591   -2.81196594    0.11393900
 H         -3.24334598   -0.35874599   -0.01705800
 H         -2.08122206   -3.27844405   -1.82460499
 H         -1.11873102    0.52411002   -2.02260089
 C         -3.81085610   -3.48732209    0.02262700
 H         -0.07615700   -2.88898110    0.62839699
 H         -3.94122410    1.65786195   -1.29140496
 H         -3.49215794    0.85037202   -2.80959511
 H         -1.77677906    1.68724895    0.51862401
 H         -5.08128881   -0.76544499   -2.18371511
 H         -3.73519802   -4.34747219   -0.65206802
 H         -4.59471798   -2.81419396   -0.33564499
 H         -4.05818415   -3.83172607    1.02628696
 H         -0.19955400   -1.84086502   -1.97631097
 O         -0.72108799   -0.71325099    1.07009494
 H          0.54080498   -0.18215901   -0.46341100
 H         -0.53372103    0.14550000    1.57098603
 C          4.22176218    0.08060000   -1.49211299
 C          2.74206591   -0.40484500   -1.50707197
 C          4.46696091    0.85489398   -0.19254600
 C          4.06258297   -0.02696300    0.99371397
 C          2.52760506   -0.28454301    0.92083901
 N          2.07650399    0.23518600   -0.37045199
 H          4.40931606    0.72175097   -2.35549092
 H          2.22258496   -0.10915900   -2.41805792
 H          5.52074003    1.12782300   -0.11313400
 H          4.59839106   -0.97745198    0.95901400
 H          1.98382795    0.24519899    1.70120096
 H          4.88392496   -0.78414297   -1.55826199
 H          2.66200495   -1.48310995   -1.37498999
 C          3.59625101    2.11604309   -0.19382700
 H          4.29907322    0.46400899    1.93909502
 H          2.28748703   -1.34579098    0.96484798
 C          2.11530805    1.69811499   -0.43385100
 H          3.90866899    2.80065799   -0.98396802
 H          3.68238711    2.63570404    0.76241601
 H          1.75663805    1.99937904   -1.41720700
 H          1.44760895    2.08815789    0.33250400
 O         -0.18879899    1.30452204    2.58789206
 O         -2.23837209    2.04645705    2.11471605
 C         -1.19151902    2.83332610    4.11780977
 C         -1.21749198    1.99642003    2.85027099
 H         -0.61701101    3.74286604    3.91807199
 H         -0.69230801    2.29296303    4.92330694
 H         -2.19891906    3.11873388    4.42019176
