55
wb97x-d4 ma-def2-tzvp(-f) cpcm(dmso) E: -1285.244218295408, G: -1284.8227359
 C         -2.08617592   -2.42960691   -0.66504502
 C         -0.56916499   -2.17408800   -0.60275602
 O          0.08352000   -3.13161898    0.20524400
 C         -0.27232000   -0.74311501   -0.16248600
 C         -1.06438601    0.25058800   -1.00819099
 C         -2.55407190   -0.09266300   -0.87950099
 C         -3.47608089    0.86062300   -1.64648497
 O         -4.35528708    1.58207905   -0.79096901
 O         -2.74068403   -1.41719997   -1.40214300
 O         -0.73888701    1.58101106   -0.68281299
 O         -2.57487512   -2.54486799    0.63932103
 H         -2.84767890   -0.07872100    0.17460699
 H         -2.28073502   -3.35330105   -1.22217095
 H         -0.78094602    0.08541000   -2.05447793
 C         -3.91497803   -3.02934694    0.69585598
 H         -0.27408201   -3.03572702    1.09816206
 H         -2.88246107    1.55050397   -2.25649595
 H         -4.10191488    0.26711401   -2.31519103
 H         -1.37341297    1.94732904   -0.00781900
 H         -3.80621195    2.05941391   -0.14014500
 H         -4.61167717   -2.30846500    0.25935301
 H         -4.15402603   -3.17402411    1.74894905
 H         -4.00062704   -3.98444295    0.16556500
 H         -0.18616600   -2.30148196   -1.61770403
 O         -0.41474101   -0.61380500    1.20636904
 H          0.83725601   -0.54705602   -0.42324799
 H         -0.68769199    0.29617599    1.49663794
 C          3.99444294    1.36895800   -1.56720197
 C          2.57203698    0.73908198   -1.66670203
 C          4.74667978    0.69059497   -0.41571200
 C          4.68954897   -0.82772702   -0.61723602
 C          3.20834088   -1.28856695   -0.46763799
 N          2.39732790   -0.07112400   -0.46111900
 H          3.91178393    2.44234896   -1.38622606
 H          1.78811395    1.49434698   -1.68899202
 H          5.78444386    1.02786803   -0.39550799
 H          5.06155777   -1.09280801   -1.60873795
 H          3.03331208   -1.81157196    0.47138301
 H          4.51727486    1.22061002   -2.51328993
 H          2.47356701    0.08114000   -2.52939200
 C          4.05331087    1.03901803    0.90631801
 H          5.29953909   -1.34319305    0.12625800
 H          2.88721895   -1.91368198   -1.30002105
 C          2.53801489    0.70323497    0.76883799
 H          4.16178417    2.09985805    1.13720703
 H          4.48934603    0.46410599    1.72548103
 H          1.92606699    1.59877396    0.67077702
 H          2.17145109    0.10166000    1.60007298
 O         -2.48895907    2.62328696    0.98211098
 O         -1.34414601    1.50141203    2.53242993
 C         -3.24992895    2.76216197    3.23735809
 C         -2.28080106    2.25989199    2.18262911
 H         -3.58996201    3.77077103    2.99990010
 H         -2.79971504    2.73627400    4.22948217
 H         -4.12314510    2.10255694    3.23511195
