55
wb97x-d4 ma-def2-tzvp(-f) cpcm(dmso) E: -1285.244536892876, G: -1284.8226246000002
 C         -2.04172301    2.96621609    0.25515401
 C         -0.59709698    2.46931100    0.13012300
 O          0.25145200    3.44963288   -0.42974600
 C         -0.53629398    1.14987803   -0.62270302
 C         -1.57143402    0.11264700   -0.16679600
 C         -2.95178509    0.75580698    0.02180400
 C         -3.91560411   -0.11636400    0.83136803
 O         -4.20563698   -1.36877894    0.24673399
 O         -2.85172200    1.95263803    0.80256301
 O         -1.63478994   -0.88089401   -1.16568804
 O         -2.47814393    3.40212703   -0.99863601
 H         -3.37378192    0.97969401   -0.96369898
 H         -2.08750105    3.78915310    0.97773999
 H         -1.24843097   -0.30668899    0.79287899
 C         -3.72749996    4.08981085   -0.94831800
 H         -0.08683400    3.65193510   -1.31204498
 H         -3.49030495   -0.24363700    1.83536196
 H         -4.85473204    0.43479300    0.93301898
 H         -1.24671102   -1.73158205   -0.79487503
 H         -3.46908808   -1.97769904    0.47738501
 H         -4.53849077    3.40837789   -0.67716098
 H         -3.90755105    4.49153614   -1.94485605
 H         -3.68442607    4.91031218   -0.22355700
 H         -0.24473099    2.28725600    1.14806700
 O         -0.56435400    1.33568895   -1.99662399
 H          0.50224102    0.68231601   -0.35984001
 H         -0.86060899    0.48125601   -2.36051011
 C          4.29352808    0.38407800    0.04767700
 C          2.90914512    1.05148399   -0.19990399
 C          4.13345289   -1.13406396   -0.09120400
 C          3.47534704   -1.43712103   -1.44188797
 C          2.02567792   -0.87043500   -1.42048001
 N          1.92092705   -0.02934300   -0.22610800
 H          4.65364885    0.63728702    1.04674101
 H          2.63902211    1.74355304    0.59661800
 H          5.10809803   -1.62135696   -0.03055600
 H          4.04451084   -0.97690803   -2.25193405
 H          1.27788794   -1.65697706   -1.33470798
 H          5.01048803    0.76642299   -0.68065900
 H          2.86506009    1.56615102   -1.15887594
 C          3.21980405   -1.64259195    1.02972806
 H          3.43358397   -2.51262307   -1.62171400
 H          1.81413198   -0.25392500   -2.29409695
 C          1.90320897   -0.81125897    1.01274395
 H          3.70037699   -1.53291202    2.00321007
 H          2.98949504   -2.69941306    0.87912703
 H          1.84576702   -0.11318900    1.84716403
 H          1.02367198   -1.45280504    0.99974501
 O         -0.54808599   -2.98900390   -0.13881800
 O         -2.29467106   -3.03643990    1.25831294
 C         -0.37614399   -4.36621809    1.78766596
 C         -1.14357400   -3.39380908    0.90531600
 H         -0.99259400   -4.73430777    2.60720396
 H          0.50037700   -3.85448790    2.19547701
 H         -0.01655300   -5.20452309    1.18707001
