55
wb97x-d4 ma-def2-tzvp(-f) cpcm(dmso) E: -1285.243350739903, G: -1284.8225665100001
 C         -1.96259105    2.95274591    0.08943900
 C         -0.52037901    2.43794203    0.02153300
 O          0.34037501    3.35409999   -0.62164903
 C         -0.46181801    1.05053902   -0.59628201
 C         -1.48855996    0.07322400   -0.01645700
 C         -2.87277198    0.73509699    0.03698800
 C         -3.90083098   -0.05272100    0.85091197
 O         -4.32740116   -1.25023699    0.23611701
 O         -2.78641009    1.99608004    0.71302599
 O         -1.51067197   -1.05941999   -0.85371703
 O         -2.38252902    3.27811503   -1.20290804
 H         -3.23947191    0.87714702   -0.98517698
 H         -2.01044011    3.83664608    0.73594600
 H         -1.18550599   -0.19004200    1.00398695
 C         -3.62923193    3.97169805   -1.22753596
 H          0.00757500    3.48032594   -1.52008402
 H         -3.48353505   -0.24920300    1.84702599
 H         -4.77396917    0.59460098    0.97687399
 H         -1.28344297   -1.87123597   -0.30620801
 H         -3.73061490   -1.97659397    0.53025502
 H         -4.44488478    3.32211804   -0.89835900
 H         -3.80067706    4.27712107   -2.25913811
 H         -3.58792210    4.85749292   -0.58404303
 H         -0.17588900    2.35169291    1.05477297
 O         -0.51016003    1.09556603   -1.98257399
 H          0.58570802    0.62026501   -0.30763599
 H         -0.75591201    0.19728500   -2.26416111
 C          4.18670177    0.07463100   -1.39889801
 C          2.77092290    0.71876198   -1.33089995
 C          4.39502192   -0.77478701   -0.13979800
 C          3.40941596   -1.94763601   -0.16822800
 C          1.97522998   -1.38208902   -0.37995201
 N          2.06955695    0.07196700   -0.22141500
 H          4.93467808    0.86653900   -1.46192503
 H          2.81394410    1.78582895   -1.11877000
 H          5.42053604   -1.14632297   -0.10392500
 H          3.64730406   -2.63462090   -0.98188400
 H          1.26566601   -1.76767194    0.35027900
 H          4.27077484   -0.54706299   -2.29231906
 H          2.19741797    0.55319297   -2.24248505
 C          4.10458899    0.08734500    1.09422100
 H          3.45405412   -2.50189090    0.77134699
 H          1.60009396   -1.58043897   -1.38335395
 C          2.59486890    0.46919101    1.08714700
 H          4.71513605    0.99221498    1.07612896
 H          4.33061886   -0.45960301    2.01090002
 H          2.44360709    1.54148698    1.20701504
 H          2.03058696   -0.06699700    1.84932899
 O         -0.83382398   -3.12041402    0.56306100
 O         -2.94173408   -3.31082511    1.29145205
 C         -1.37154698   -4.98694897    1.94039905
 C         -1.74869597   -3.70146394    1.21771705
 H         -2.03926802   -5.17393684    2.78161812
 H         -0.33519101   -4.95177889    2.27837992
 H         -1.46850598   -5.81701612    1.23391497
