55
wb97x-d4 ma-def2-tzvp(-f) cpcm(dmso) E: -1285.242853459949, G: -1284.82245607
 C         -2.15502191   -2.38535190    0.00116600
 C         -0.62901199   -2.18951797    0.07787300
 O         -0.06974500   -2.90369105    1.15992105
 C         -0.26872399   -0.70435202    0.12999900
 C         -0.95729101    0.04756600   -1.01167500
 C         -2.46732402   -0.19192800   -0.90603799
 C         -3.24170303    0.47557700   -2.02427292
 O         -4.64244223    0.24919499   -1.89566803
 O         -2.70522404   -1.60024905   -1.03709698
 O         -0.59603798    1.40925896   -1.08681703
 O         -2.71349597   -2.09540009    1.24791896
 H         -2.84781194    0.15512300    0.06012300
 H         -2.37934899   -3.42058396   -0.28106999
 H         -0.61957300   -0.41510499   -1.94470894
 C         -4.08929586   -2.45919800    1.34202397
 H         -0.40458700   -2.49095511    1.96764803
 H         -3.08794403    1.55356300   -1.97997296
 H         -2.87574697    0.10686700   -2.99077892
 H         -0.88463002    1.86529195   -0.26376900
 H         -4.77554083   -0.70630097   -1.86222196
 H         -4.22596884   -3.51466393    1.08078599
 H         -4.70489407   -1.84032595    0.68337703
 H         -4.38853312   -2.29677296    2.37696910
 H         -0.21063700   -2.61470199   -0.83675700
 O         -0.45367301   -0.21411200    1.40788198
 H          0.86325997   -0.63638401   -0.10850700
 H         -0.77044398    0.73977298    1.42820096
 C          3.99676704    1.28407001    0.94346601
 C          2.49103904    0.91275901    0.79650199
 C          4.78392982    0.55453497   -0.15069900
 C          4.14587784    0.85889101   -1.51108694
 C          2.71244693    0.24724300   -1.53522205
 N          2.42419004   -0.18263300   -0.16641501
 H          4.35845423    0.98948598    1.93042898
 H          2.05545998    0.57400602    1.73577201
 H          5.82535696    0.88102299   -0.14383000
 H          4.08965588    1.93747699   -1.66977203
 H          2.65043807   -0.62802500   -2.18089509
 H          4.10679007    2.36530900    0.84729898
 H          1.90203500    1.73884201    0.40108800
 C          4.70384407   -0.95451099    0.10480600
 H          4.73385906    0.42423701   -2.32093906
 H          1.95886099    0.97562200   -1.83026004
 C          3.20346498   -1.35248303    0.23989600
 H          5.22840595   -1.22197497    1.02344406
 H          5.15943193   -1.50357401   -0.72144097
 H          2.93241501   -1.59444404    1.26673102
 H          2.93990707   -2.18422103   -0.41248500
 O         -3.21351504    1.72156000    2.36366796
 O         -1.29400599    2.24555206    1.34735894
 C         -3.16105700    3.66146398    0.95442998
 C         -2.53363204    2.44845510    1.62163603
 H         -2.57717395    4.55424213    1.19001496
 H         -4.19384003    3.79975009    1.27227902
 H         -3.12801600    3.52472401   -0.13030800
