55
wb97x-d4 ma-def2-tzvp(-f) cpcm(dmso) E: -1285.244102418249, G: -1284.8224375300001
 C         -2.23644304   -1.77063096    0.21884599
 C         -0.74404502   -1.41598105    0.22742400
 O         -0.14496601   -1.62812304    1.48169899
 C         -0.51494902   -0.01972700   -0.35830399
 C         -1.15303600    0.07941300   -1.74032497
 C         -2.63563299   -0.30326501   -1.63655996
 C         -3.33494210   -0.34006301   -2.98283291
 O         -2.74842405   -1.28000700   -3.87942100
 O         -2.76429105   -1.61838806   -1.08567500
 O         -0.99782801    1.38354897   -2.27409601
 O         -2.89706993   -0.98633802    1.16306400
 H         -3.14656496    0.42558599   -0.99672699
 H         -2.36378002   -2.83446789    0.45060199
 H         -0.65329403   -0.61117297   -2.42240906
 C         -4.22698021   -1.42086804    1.43014205
 H         -0.43714601   -0.92838001    2.11212707
 H         -4.39370584   -0.57206100   -2.82151508
 H         -3.26065111    0.63957399   -3.45560193
 H         -1.19275403    2.00482702   -1.55853903
 H         -2.80217600   -2.14842796   -3.46208811
 H         -4.23245001   -2.47228599    1.73947203
 H         -4.86637592   -1.29875004    0.55109400
 H         -4.60395908   -0.80026603    2.24268198
 H         -0.27041000   -2.11373401   -0.46994901
 O         -0.90823001    1.07427704    0.38988999
 H          0.62933499    0.05469500   -0.51772797
 H         -0.82113898    0.92359799    1.37942302
 C          4.05948114    0.95471102   -2.04717708
 C          2.62678289    0.34683701   -1.96813095
 C          4.57639122    1.16432297   -0.61898202
 C          4.42940807   -0.14913499    0.15686999
 C          2.91106606   -0.45570001    0.31765500
 N          2.20609999    0.46770599   -0.57210702
 H          4.02995920    1.90563297   -2.58255911
 H          1.91642797    0.88836402   -2.59139204
 H          5.62261295    1.47419798   -0.63982803
 H          4.91820717   -0.96395999   -0.38068101
 H          2.55810499   -0.27488700    1.33141196
 H          4.70622683    0.27088401   -2.59899306
 H          2.61373591   -0.71028697   -2.23122001
 C          3.72262907    2.23910999    0.06369600
 H          4.88305283   -0.07136100    1.14618504
 H          2.66443992   -1.47499502    0.02335700
 C          2.22214007    1.84573495   -0.08908100
 H          3.88190389    3.21523809   -0.39701399
 H          3.98098803    2.31350303    1.12177300
 H          1.70718503    2.46425605   -0.82300699
 H          1.68784201    1.88629103    0.85944402
 O         -0.72879601    0.54369700    2.92541099
 O         -2.58071995    1.69718301    3.39785194
 C         -2.20877910   -0.37408701    4.54648495
 C         -1.83726001    0.71400899    3.55154896
 H         -3.20487690   -0.21154200    4.95732117
 H         -1.47851503   -0.37945801    5.36032677
 H         -2.16382909   -1.34884703    4.05614185
