55
wb97x-d4 ma-def2-tzvp(-f) cpcm(dmso) E: -1285.243841082783, G: -1284.8223763100002
 C         -2.14727807   -1.72956598   -0.14869800
 C         -0.67457801   -1.30828297   -0.23147300
 O          0.08719900   -1.76428103    0.85894400
 C         -0.55263197    0.19484600   -0.49997899
 C         -1.36491394    0.58611202   -1.73267603
 C         -2.81090808    0.11020200   -1.52844405
 C         -3.67821789    0.36486101   -2.74453712
 O         -5.03567123    0.00245200   -2.50625396
 O         -2.83103991   -1.30514097   -1.31350601
 O         -1.30470502    1.98300099   -1.95889294
 O         -2.70456600   -1.22306299    1.02352405
 H         -3.23830605    0.62247699   -0.65943700
 H         -2.21827412   -2.82340693   -0.16283000
 H         -0.94746202    0.09611600   -2.61616611
 C         -3.98797297   -1.76589501    1.32071900
 H         -0.15437400   -1.25725400    1.67011905
 H         -3.67004895    1.42851996   -2.98114991
 H         -3.27381802   -0.19056000   -3.60001302
 H         -1.42936099    2.41337490   -1.10130894
 H         -5.04302311   -0.92848200   -2.25130391
 H         -3.94859195   -2.86108589    1.33035302
 H         -4.73394680   -1.43701601    0.59146303
 H         -4.26226807   -1.40244496    2.31074190
 H         -0.27662700   -1.80434096   -1.12191105
 O         -0.86066997    1.06587303    0.52504200
 H          0.57271600    0.35234901   -0.76454699
 H         -0.67589802    0.68661100    1.43904305
 C          4.34983778   -0.33903599   -1.01621401
 C          2.82348490   -0.64101702   -0.97786403
 C          4.58150387    1.05739498   -0.42743999
 C          3.89848208    1.13790798    0.94187701
 C          2.35930109    1.03563499    0.72934002
 N          2.15505409    0.62226498   -0.65868402
 H          4.71202278   -0.38003400   -2.04538107
 H          2.45203900   -0.99358600   -1.93967497
 H          5.65090799    1.24994898   -0.32579201
 H          4.23881102    0.32292101    1.58370495
 H          1.86105704    1.99392104    0.86929899
 H          4.87810278   -1.09844005   -0.43758199
 H          2.56186008   -1.35814500   -0.20181200
 C          3.94520998    2.09588003   -1.35991597
 H          4.12853622    2.08251905    1.43706405
 H          1.90574801    0.29205799    1.38224602
 C          2.46393490    1.68696702   -1.61515999
 H          4.47297478    2.13660502   -2.31405997
 H          3.98356509    3.08774710   -0.90533698
 H          2.31329703    1.28927302   -2.61826992
 H          1.77476799    2.51314592   -1.44356203
 O         -0.38429400   -0.03209600    2.82574511
 O         -2.20686197    0.83292300    3.78319311
 C         -1.56590295   -1.40365303    4.36623192
 C         -1.39597404   -0.09251300    3.61566591
 H         -2.37755203   -1.34604394    5.09093380
 H         -0.63363999   -1.66447496    4.87231016
 H         -1.78103602   -2.19404793    3.64231300
