55
wb97x-d4 ma-def2-tzvp(-f) cpcm(dmso) E: -1285.24335800636, G: -1284.8223440000002
 C         -2.13222909   -2.68124604   -0.11309900
 C         -0.68620503   -2.19066811    0.07538500
 O         -0.11621500   -2.69051695    1.26632905
 C         -0.60142398   -0.66731298    0.00123100
 C         -1.28861701   -0.15212600   -1.26424897
 C         -2.72692895   -0.68329102   -1.29344404
 C         -3.45243502   -0.29690701   -2.56687689
 O         -4.79311895   -0.77883500   -2.57349992
 O         -2.69188595   -2.11614990   -1.28018296
 O         -1.21700799    1.24855995   -1.41557395
 O         -2.86937094   -2.38673902    1.03549802
 H         -3.28343701   -0.31660801   -0.42382500
 H         -2.13365293   -3.76220798   -0.29510000
 H         -0.75978500   -0.58766901   -2.11868501
 C         -4.16489077   -2.98393512    1.03570104
 H         -0.58556598   -2.27094007    1.99997997
 H         -3.50246692    0.78864098   -2.64364791
 H         -2.89771891   -0.68671501   -3.42981410
 H         -1.46755302    1.69702399   -0.57939899
 H         -4.75408411   -1.73363996   -2.43676996
 H         -4.09098387   -4.06258392    0.85685903
 H         -4.80447912   -2.53341508    0.27162400
 H         -4.59441519   -2.80597210    2.02104998
 H         -0.10710400   -2.60522890   -0.75260800
 O         -1.01746905   -0.11464400    1.19491005
 H          0.53045201   -0.42547899   -0.13189900
 H         -1.19349599    0.87054598    1.12112403
 C          3.71222591    0.88035798    1.49069905
 C          2.27980494    0.27979800    1.37592399
 C          4.44464588    0.65225297    0.16267100
 C          3.75114298    1.47401202   -0.92924702
 C          2.23234200    1.13849699   -0.90501398
 N          2.07620406   -0.03255200   -0.03799800
 H          4.23818493    0.39411399    2.31396103
 H          2.17512488   -0.64626002    1.93994701
 H          5.49007607    0.95228398    0.25399300
 H          3.88312101    2.54308510   -0.75405902
 H          1.85404599    0.88370001   -1.89436197
 H          3.64972591    1.94854701    1.70880997
 H          1.51546204    0.99430001    1.67779195
 C          4.35379219   -0.83298999   -0.20623100
 H          4.17114401    1.23345494   -1.90805399
 H          1.63575697    1.94161606   -0.47612399
 C          2.86109400   -1.18425298   -0.48340899
 H          4.73450899   -1.45070899    0.60954303
 H          4.94259501   -1.04671800   -1.09972000
 H          2.53621197   -2.06080389    0.07612700
 H          2.66480994   -1.33407295   -1.54443395
 O          0.42451799    3.05048609    1.29971194
 O         -1.69677401    2.40293789    1.01897204
 C         -1.32241905    4.62421083    1.77520001
 C         -0.80029303    3.26562595    1.33488905
 H         -1.98802197    4.49696493    2.63230109
 H         -1.91059303    5.06469393    0.96616900
 H         -0.50634998    5.29548216    2.04092503
