55
wb97x-d4 ma-def2-tzvp(-f) cpcm(dmso) E: -1285.242354056341, G: -1284.8223003100002
 C         -1.97547197   -2.31764197   -0.29549101
 C         -0.48065999   -1.95305097   -0.32321301
 O          0.27300200   -2.78436089    0.53417802
 C         -0.26594999   -0.47088099   -0.01390900
 C         -1.14786506    0.38916099   -0.92343801
 C         -2.60586810   -0.04828800   -0.73474503
 C         -3.55958796    0.70539898   -1.63964999
 O         -4.91006708    0.30490899   -1.42443895
 O         -2.71643591   -1.42911601   -1.10568297
 O         -0.94703400    1.77479005   -0.76181799
 O         -2.41574788   -2.33076096    1.02944100
 H         -2.91404200    0.07815200    0.30870500
 H         -2.12212896   -3.30355406   -0.75161999
 H         -0.86701500    0.15126701   -1.95456600
 C         -3.72612906   -2.87442398    1.17788506
 H         -0.01579300   -2.59059095    1.43619704
 H         -3.50444388    1.77142298   -1.42171597
 H         -3.26929998    0.54422998   -2.68547893
 H         -1.17575097    2.03328204    0.16117600
 H         -4.95029402   -0.65016401   -1.55826902
 H         -3.77928805   -3.87542701    0.73511302
 H         -4.47355223   -2.22981310    0.70714903
 H         -3.92204309   -2.93731189    2.24774289
 H         -0.13083500   -2.14471602   -1.34013903
 O         -0.35959801   -0.24916001    1.34576595
 H          0.82734901   -0.24508300   -0.32992500
 H         -0.70838302    0.66170901    1.57758105
 C          4.51870918   -0.73363400   -1.34655404
 C          3.00285506   -1.05704200   -1.18825102
 C          4.86593390    0.43519500   -0.41790900
 C          4.40229511    0.09538600    1.00248599
 C          2.84619093   -0.00180500    1.00522804
 N          2.42704296    0.02958300   -0.39408201
 H          4.73484182   -0.47038299   -2.38368893
 H          2.48877501   -1.09065604   -2.14822292
 H          5.94259024    0.61391902   -0.42738301
 H          4.83161211   -0.85530502    1.32446206
 H          2.38161612    0.84207600    1.51336002
 H          5.10135078   -1.61997402   -1.09046197
 H          2.83414197   -1.98887801   -0.65043002
 C          4.12099409    1.68631601   -0.89540702
 H          4.71284723    0.86766499    1.70786595
 H          2.49356508   -0.93150800    1.44906700
 C          2.60517406    1.34447896   -1.01085103
 H          4.48962593    2.00914502   -1.87036800
 H          4.26320410    2.50504494   -0.18740501
 H          2.27639699    1.27567995   -2.04710698
 H          1.98056400    2.05976892   -0.47831199
 O         -1.36903799    2.10752010    1.84481096
 O         -2.92945695    1.26383197    3.20203590
 C         -3.48936510    3.18633795    1.88521504
 C         -2.54228306    2.09929609    2.36875892
 H         -2.98360991    4.15376997    1.87881994
 H         -4.38549709    3.23512197    2.50296593
 H         -3.77814698    2.95907211    0.85452300
