55
wb97x-d4 ma-def2-tzvp(-f) cpcm(dmso) E: -1285.243970875443, G: -1284.8222965300001
 C         -2.26569891    1.43281806   -0.49345401
 C         -0.76932001    1.09742999   -0.49852201
 O         -0.29840401    0.72190797   -1.76976001
 C         -0.42196101    0.10647300    0.61565101
 C         -0.92313600    0.62421799    1.96255803
 C         -2.42258501    0.92885798    1.84169400
 C         -2.98774004    1.55305398    3.10136104
 O         -4.39677191    1.74219203    3.00404692
 O         -2.64595199    1.88038802    0.79507500
 O         -0.66891599   -0.31391901    2.99278498
 O         -2.98913002    0.32073599   -0.91640598
 H         -2.95963693    0.00019500    1.61896706
 H         -2.45308995    2.28588510   -1.15573597
 H         -0.38997400    1.54309702    2.22099805
 C         -4.35104322    0.61019403   -1.21809006
 H         -0.64228803   -0.17388700   -1.99913001
 H         -2.81303191    0.88959301    3.94803691
 H         -2.48102498    2.50768805    3.29075694
 H         -0.90624899   -1.18464994    2.64375091
 H         -4.55916691    2.28089309    2.21972895
 H         -4.90446281    0.88840997   -0.31643099
 H         -4.77943420   -0.29752001   -1.64221203
 H         -4.41707993    1.42290199   -1.95022500
 H         -0.26043299    2.03057909   -0.23803800
 O         -0.82083100   -1.20720804    0.46835601
 H          0.73911399    0.11866100    0.65905797
 H         -0.88683403   -1.50038803   -0.49345499
 C          3.86147404   -1.62325704   -0.70579702
 C          2.36030793   -1.24194896   -0.53634799
 C          4.71599007   -0.53070801   -0.05311800
 C          4.45394611   -0.53721499    1.45720696
 C          2.91778302   -0.42634699    1.69269502
 N          2.31910300   -0.11517700    0.39434201
 H          4.08731222   -1.71061599   -1.76972699
 H          1.90919006   -0.91651601   -1.47195399
 H          5.77351618   -0.71458602   -0.25032100
 H          4.81912804   -1.45999599    1.91059804
 H          2.66623306    0.37331301    2.38843608
 H          4.05698919   -2.58839393   -0.23472300
 H          1.77336299   -2.05765295   -0.11454100
 C          4.30295086    0.83142298   -0.62187302
 H          4.96247005    0.30292800    1.93403101
 H          2.48736095   -1.36335194    2.04392099
 C          2.83561897    1.12440705   -0.18808700
 H          4.37229776    0.82417399   -1.71135199
 H          4.95205593    1.62243795   -0.24296901
 H          2.20496202    1.39450502   -1.03362596
 H          2.78032398    1.89996397    0.57497197
 O         -0.99757999   -1.83986998   -2.03554296
 O         -2.89768505   -2.97459507   -1.73570597
 C         -2.64320397   -1.69382799   -3.74596596
 C         -2.16942692   -2.22026992   -2.40093303
 H         -1.95770895   -2.02908611   -4.52871704
 H         -2.61971402   -0.60156101   -3.73250794
 H         -3.65197301   -2.03677106   -3.97375298
