55
wb97x-d4 ma-def2-tzvp(-f) cpcm(dmso) E: -1285.242721775655, G: -1284.8222700400001
 C         -2.20582795   -2.36185288   -0.16958900
 C         -0.68054098   -2.19500494   -0.04574200
 O         -0.14950401   -3.03540397    0.95749903
 C         -0.30403700   -0.73002899    0.17738301
 C         -0.96816701    0.15099899   -0.88144201
 C         -2.48357606   -0.07977300   -0.84355199
 C         -3.23651099    0.71833301   -1.89025104
 O         -2.78259897    0.45955500   -3.21605206
 O         -2.73414707   -1.46363604   -1.12310898
 O         -0.60190499    1.51037502   -0.78198802
 O         -2.78203893   -2.19959903    1.09259403
 H         -2.88326693    0.18107100    0.14235701
 H         -2.43609190   -3.35842896   -0.56395298
 H         -0.61078900   -0.19593500   -1.85475397
 C         -4.15964317   -2.56541991    1.13198602
 H         -0.49442801   -2.71243000    1.80094099
 H         -4.30544281    0.49522600   -1.79835498
 H         -3.08666205    1.78238595   -1.70544195
 H         -0.90912700    1.86463106    0.08126700
 H         -2.93295789   -0.47617799   -3.39687800
 H         -4.47550917   -2.49373007    2.17224002
 H         -4.29442883   -3.59357095    0.77742600
 H         -4.76339102   -1.88920701    0.52056497
 H         -0.25046700   -2.52019095   -0.99558997
 O         -0.49596599   -0.37778401    1.50068903
 H          0.82905298   -0.65525502   -0.03562300
 H         -0.82630098    0.56426603    1.61990595
 C          3.94777203    1.51603699    0.56589502
 C          2.51731300    0.92849499    0.76883000
 C          4.73775101    0.56910503   -0.34552199
 C          4.08980083    0.55870903   -1.73480403
 C          2.57282400    0.24421400   -1.56955802
 N          2.38819599   -0.17438500   -0.18019301
 H          4.43399382    1.61548698    1.53745306
 H          2.37746406    0.52661997    1.77143395
 H          5.77537489    0.89954799   -0.41867399
 H          4.20074415    1.52792597   -2.22351909
 H          2.25002909   -0.56757802   -2.22071195
 H          3.87838602    2.50747895    0.11426100
 H          1.73901403    1.65875995    0.55397898
 C          4.67542982   -0.84570199    0.24055400
 H          4.55931377   -0.19885100   -2.36515093
 H          1.94781995    1.11949301   -1.73825896
 C          3.19794703   -1.33725905    0.18198600
 H          5.02421522   -0.84364802    1.27498198
 H          5.30237722   -1.53187501   -0.33079800
 H          2.85157704   -1.71017504    1.14513600
 H          3.04806709   -2.10039401   -0.58083999
 O         -1.35320306    2.07229090    1.73290503
 O         -3.27814603    1.32442796    2.58632493
 C         -3.21262598    3.55315709    1.70346904
 C         -2.59104109    2.20909905    2.04909301
 H         -4.22673512    3.63324404    2.09366894
 H         -3.23407698    3.66043305    0.61501902
 H         -2.59531093    4.36192894    2.10050392
