55
wb97x-d4 ma-def2-tzvp(-f) cpcm(dmso) E: -1285.243888307614, G: -1284.82224296
 C         -2.26912999    1.40641201   -0.48401901
 C         -0.77191198    1.07386601   -0.48842701
 O         -0.29277101    0.72712499   -1.76474905
 C         -0.43156999    0.05813600    0.60530400
 C         -0.94016403    0.54616600    1.96024799
 C         -2.43783307    0.85850602    1.84065700
 C         -3.00126100    1.46407294    3.11026692
 O         -4.40843916    1.66617095    3.01381898
 O         -2.65524793    1.82977796    0.81095302
 O         -0.69311899   -0.41483000    2.97121096
 O         -2.98919010    0.30105999   -0.92961597
 H         -2.97837591   -0.06377300    1.60062599
 H         -2.45553303    2.27112699   -1.13134205
 H         -0.40547800    1.45754397    2.24134898
 C         -4.35258102    0.59263098   -1.22235096
 H         -0.63306302   -0.16472401   -2.01650691
 H         -2.83312511    0.78444600    3.94538689
 H         -2.48728299    2.41117692    3.31734109
 H         -0.93194199   -1.27718699    2.60312295
 H         -4.56475115    2.21992993    2.23882699
 H         -4.90653896    0.84255701   -0.31277400
 H         -4.77708578   -0.30452701   -1.67192900
 H         -4.42292500    1.42571294   -1.93081403
 H         -0.26586801    2.00142789   -0.20395400
 O         -0.83045501   -1.25259697    0.42489201
 H          0.72742498    0.06873200    0.65947199
 H         -0.89203399   -1.52067697   -0.54200202
 C          3.90211701   -1.44528997   -0.85067499
 C          2.39976096   -1.28927100   -0.46475199
 C          4.72733021   -0.46843800   -0.00530100
 C          4.41349316   -0.71242100    1.47506201
 C          2.91704011   -0.35848099    1.72991598
 N          2.31565499   -0.12601399    0.41708201
 H          4.03263187   -1.23241305   -1.91333997
 H          1.76961899   -1.10590899   -1.33338594
 H          5.79187107   -0.62015802   -0.19199100
 H          4.59471893   -1.75757098    1.73276901
 H          2.80388403    0.55216497    2.31676602
 H          4.21449089   -2.47438097   -0.66673702
 H          2.02369094   -2.15300107    0.08203700
 C          4.32912111    0.96556199   -0.37110400
 H          5.04191589   -0.08929000    2.11309195
 H          2.38065600   -1.17378795    2.21371102
 C          2.78548002    1.10701299   -0.21548000
 H          4.60670996    1.19249201   -1.40165699
 H          4.83421516    1.67806804    0.28360400
 H          2.28011298    1.20167398   -1.17496800
 H          2.51368809    1.94521797    0.42536601
 O         -0.99540001   -1.82206297   -2.10512900
 O         -2.91048789   -2.95630097   -1.91911101
 C         -2.60811305   -1.54385102   -3.83158302
 C         -2.16399789   -2.16363096   -2.51601291
 H         -3.63245893   -1.82344794   -4.07600021
 H         -1.94030595   -1.87822700   -4.63014984
 H         -2.52718902   -0.45651200   -3.76701307
