55
wb97x-d4 ma-def2-tzvp(-f) cpcm(dmso) E: -1285.242800069666, G: -1284.8221581500002
 C         -2.23421311   -2.57324004   -1.04374301
 C         -0.75248301   -2.21631289   -0.82562000
 O         -0.08759500   -3.21602392   -0.08182900
 C         -0.60468602   -0.83535999   -0.19064701
 C         -1.39326096    0.19406800   -1.00161695
 C         -2.85851908   -0.25342199   -1.07083297
 C         -3.72834206    0.67591101   -1.89568603
 O         -3.25173497    0.83675200   -3.22887897
 O         -2.91254711   -1.53315401   -1.71618104
 O         -1.23350799    1.52141201   -0.55116099
 O         -2.81410408   -2.87951994    0.19031499
 H         -3.28095603   -0.32004800   -0.06141300
 H         -2.30628490   -3.43597603   -1.71608305
 H         -0.99676597    0.16527100   -2.02030802
 C         -4.09904289   -3.48643208    0.06812300
 H         -0.48954901   -3.22280598    0.79729700
 H         -4.75281620    0.28660801   -1.89696705
 H         -3.73177505    1.66540098   -1.43852496
 H         -1.43283403    1.58683705    0.40850401
 H         -3.23949099   -0.03616600   -3.63975096
 H         -4.40859795   -3.77613497    1.07178795
 H         -4.04438114   -4.37580013   -0.56961298
 H         -4.82663679   -2.78523898   -0.34971100
 H         -0.28575599   -2.19041395   -1.81253099
 O         -0.86974901   -0.91085100    1.16173601
 H          0.50771701   -0.53493297   -0.32240799
 H         -1.10717404   -0.02328500    1.57233000
 C          3.65751791    1.50657105   -1.24489701
 C          2.30770493    0.75598502   -1.45640504
 C          4.26139688    1.05884898    0.09207300
 C          4.33938980   -0.47227800    0.11338200
 C          2.88846493   -1.04001296    0.08852200
 N          2.00433207    0.09105900   -0.18980600
 H          3.48336196    2.58433604   -1.23911798
 H          1.49249899    1.43927300   -1.69069004
 H          5.25792503    1.48665595    0.21484500
 H          4.89337111   -0.83622801   -0.75405699
 H          2.59511805   -1.46341503    1.04835296
 H          4.32956314    1.27317500   -2.07209206
 H          2.37906194   -0.00883800   -2.22881103
 C          3.34569001    1.52100694    1.23078406
 H          4.84515095   -0.82346803    1.01416194
 H          2.75297093   -1.78441703   -0.69508201
 C          1.90112901    1.02045298    0.93280900
 H          3.33631110    2.60950708    1.30640399
 H          3.69140196    1.11528206    2.18348098
 H          1.23868406    1.83062303    0.63309902
 H          1.46709096    0.49403501    1.78151202
 O         -0.04535600    1.22579706    3.75535393
 O         -1.55464101    1.39711702    2.11951303
 C         -0.72078502    3.41789103    3.05848098
 C         -0.76161098    1.89943898    2.99550796
 H         -1.73278201    3.81197500    3.17504597
 H         -0.32587400    3.79941010    2.11251307
 H         -0.09200100    3.76307392    3.87852812
