55
wb97x-d4 ma-def2-tzvp(-f) cpcm(dmso) E: -1285.242857368571, G: -1284.82212353
 C         -2.11095595   -2.33606791   -0.51512402
 C         -0.59207398   -2.09331393   -0.49230900
 O          0.08083000   -3.08692503    0.25257900
 C         -0.26680800   -0.68627101    0.00955500
 C         -1.07410896    0.35082501   -0.77048397
 C         -2.56487298    0.01122100   -0.65341800
 C         -3.45858502    0.95981801   -1.42769206
 O         -3.13375497    1.02153397   -2.81381607
 O         -2.77258611   -1.29634798   -1.20619798
 O         -0.76881403    1.67875397   -0.40066999
 O         -2.56394696   -2.47823906    0.79853803
 H         -2.87414908    0.02362800    0.39663300
 H         -2.33206797   -3.24234509   -1.09086597
 H         -0.79620600    0.24852200   -1.82281697
 C         -3.91553998   -2.92469501    0.88168299
 H         -0.19379599   -2.97731495    1.17309797
 H         -4.50057888    0.64981103   -1.28969896
 H         -3.34029198    1.96779501   -1.02886403
 H         -1.04983604    1.81965697    0.52943599
 H         -3.25187993    0.13649701   -3.17949200
 H         -4.12328720   -3.10675812    1.93561399
 H         -4.04926205   -3.85327196    0.31524199
 H         -4.60404015   -2.16549110    0.50051999
 H         -0.24399599   -2.17808795   -1.52425206
 O         -0.34159201   -0.62711698    1.39002395
 H          0.83215302   -0.49972999   -0.28248999
 H         -0.75272000    0.22458801    1.72848904
 C          4.68092918   -0.79989499   -0.54417199
 C          3.19740391   -1.23692203   -0.34392300
 C          4.74161291    0.73141098   -0.53690398
 C          4.08815193    1.24890900    0.74966902
 C          2.57700300    0.86529100    0.72726399
 N          2.39366293   -0.01817100   -0.41993600
 H          5.05457878   -1.18931997   -1.49286306
 H          2.86235309   -1.91932201   -1.12399101
 H          5.77981091    1.06433499   -0.58847201
 H          4.57001209    0.80702800    1.62366498
 H          1.93403006    1.73238301    0.58549100
 H          5.28854990   -1.21671295    0.26057899
 H          3.03010297   -1.68832505    0.63301098
 C          3.96126509    1.26170802   -1.74508703
 H          4.17868280    2.33390498    0.82124197
 H          2.27254891    0.32932699    1.62575996
 C          2.51676393    0.67343402   -1.70154905
 H          4.44261599    0.96119100   -2.67697310
 H          3.91499305    2.35191703   -1.71862495
 H          2.34461498   -0.05387600   -2.49396896
 H          1.75707495    1.45210195   -1.74527395
 O         -1.39539301    1.62403703    2.21302390
 O         -3.25002789    0.58683002    2.90459108
 C         -3.27915812    2.97871900    2.72740293
 C         -2.61337900    1.61551094    2.61959910
 H         -3.31528306    3.43534303    1.73439503
 H         -2.68099999    3.63202190    3.36669898
 H         -4.28975391    2.89646602    3.12612391
