55
wb97x-d4 ma-def2-tzvp(-f) cpcm(dmso) E: -1285.242054432331, G: -1284.8220833
 C         -2.13161492   -2.41404390   -0.72304100
 C         -0.61896503   -2.14136195   -0.63710999
 O          0.03637800   -3.11677504    0.14613999
 C         -0.33935499   -0.72316098   -0.14143400
 C         -1.12697995    0.28845301   -0.97710598
 C         -2.61343908   -0.07371100   -0.90070200
 C         -3.48044491    0.84202999   -1.73995602
 O         -4.85843420    0.49143401   -1.64095497
 O         -2.78136396   -1.39021099   -1.44702899
 O         -0.85368299    1.63030899   -0.63505000
 O         -2.64305592   -2.56573296    0.56790400
 H         -2.95548201   -0.05287800    0.13909900
 H         -2.30615997   -3.32579708   -1.30606997
 H         -0.81044102    0.16355200   -2.01781893
 C         -3.97705412   -3.07045102    0.58123201
 H         -0.29594001   -3.02015090    1.04879403
 H         -3.38495398    1.86570597   -1.37890100
 H         -3.14596891    0.80446500   -2.78447795
 H         -1.01564705    1.76596999    0.32374001
 H         -4.93551111   -0.43636501   -1.89620495
 H         -4.03379822   -4.01895618    0.03531700
 H         -4.67211008   -2.35350204    0.13535200
 H         -4.24300003   -3.23367310    1.62506294
 H         -0.22518100   -2.23162198   -1.65186000
 O         -0.50193298   -0.65519601    1.22891903
 H          0.77263999   -0.51000702   -0.37488699
 H         -0.72703499    0.27029499    1.55177999
 C          4.59693098   -0.67580301    0.12131600
 C          3.13052607   -1.17781496   -0.04364600
 C          4.66973686    0.77646297   -0.36238801
 C          3.81734395    1.64747202    0.56806898
 C          2.38287497    1.03948402    0.63973302
 N          2.32650208   -0.00438400   -0.38107601
 H          5.26032019   -1.31516898   -0.46303800
 H          3.03143096   -1.89650500   -0.85610902
 H          5.70477819    1.12265801   -0.35421699
 H          4.24469185    1.67629099    1.57142496
 H          1.61385000    1.77705002    0.41819000
 H          4.89431477   -0.74116898    1.16962504
 H          2.73824191   -1.60939205    0.87627101
 C          4.09968185    0.85780698   -1.78316903
 H          3.76432991    2.66960692    0.18862800
 H          2.18001509    0.57678097    1.60480905
 C          2.58351493    0.50155598   -1.72857404
 H          4.62041187    0.15875800   -2.44025111
 H          4.21554279    1.86287701   -2.19153190
 H          2.31970596   -0.27522501   -2.44544911
 H          1.94955504    1.37349796   -1.88342595
 O         -1.04809201    1.76339400    2.05568099
 O         -3.09870100    1.05657995    2.60185194
 C         -2.44982505    3.27830291    3.23175192
 C         -2.20784402    1.92225301    2.58658004
 H         -3.46966195    3.36344290    3.60572004
 H         -2.25493407    4.07002306    2.50455594
 H         -1.74671102    3.41254711    4.05792713
