55
wb97x-d4 ma-def2-tzvp(-f) cpcm(dmso) E: -1285.247250683605, G: -1284.82531702
 C         -2.59880900   -1.84016204    0.31110901
 C         -1.15569901   -1.39057505    0.58955097
 O         -0.93431300   -1.07194698    1.93621504
 C         -0.72703803   -0.29931799   -0.39376199
 C         -0.98438698   -0.73951602   -1.83025801
 C         -2.44955802   -1.16699696   -1.98311496
 C         -2.75807500   -1.73069894   -3.35786605
 O         -1.97224295   -2.87880993   -3.66657901
 O         -2.74567509   -2.20833206   -1.04734397
 O         -0.65514600    0.29654700   -2.73926806
 O         -3.48612189   -0.83253199    0.68996400
 H         -3.09779191   -0.30113700   -1.80582500
 H         -2.80723000   -2.75759792    0.87404603
 H         -0.34662700   -1.59509003   -2.06278205
 C         -4.84679890   -1.25821805    0.69885403
 H         -1.41402805   -0.25204599    2.21189904
 H         -3.82603097   -1.97111297   -3.40776801
 H         -2.53343797   -0.97849798   -4.11441612
 H         -0.94825500    1.12409699   -2.33104992
 H         -2.16385508   -3.54693103   -2.99712300
 H         -4.96408796   -2.15719604    1.31462204
 H         -5.20121908   -1.46572101   -0.31479201
 H         -5.43018723   -0.44396800    1.12778199
 H         -0.53412902   -2.26371098    0.36641800
 O         -1.24933004    0.96159202   -0.20408501
 H          0.43183199   -0.22707701   -0.28259501
 H         -0.94998097    1.38072503    0.67153299
 C          3.92879891    0.24195500    1.23095000
 C          2.39882803   -0.04514200    1.18057895
 C          4.35452890    0.85344303   -0.10828600
 C          3.47270012    2.07155299   -0.40150499
 C          2.00380492    1.58637905   -0.58636802
 N          1.97602403    0.17456500   -0.20452800
 H          4.47404814   -0.68616903    1.41363502
 H          2.16503692   -1.07388103    1.45108700
 H          5.40357924    1.15198600   -0.06737600
 H          3.52578712    2.78463888    0.42345801
 H          1.67614698    1.65769196   -1.62239206
 H          4.13749409    0.92790502    2.05347610
 H          1.82878006    0.63494802    1.81139100
 C          4.14877176   -0.18572100   -1.21658897
 H          3.80035710    2.57624292   -1.31171894
 H          1.31088400    2.12732792    0.05579300
 C          2.67523599   -0.68774599   -1.15924001
 H          4.82149410   -1.03410697   -1.08130205
 H          4.35054588    0.25781599   -2.19348693
 H          2.60366392   -1.71328199   -0.79837799
 H          2.17733192   -0.60482198   -2.12456608
 O         -1.88149202    1.11638498    3.15407610
 O         -0.46375600    2.25986505    1.86436796
 C         -0.90784198    3.10593891    4.04979706
 C         -1.11118102    2.08697200    2.94077110
 H         -1.79087305    3.16778898    4.68612480
 H         -0.66418499    4.08667994    3.64062500
 H         -0.06629300    2.77502108    4.66624117
