55
wb97x-d4 ma-def2-tzvp(-f) cpcm(dmso) E: -1285.242755406578, G: -1284.82197074
 C         -2.15365005   -2.64634800   -0.87393701
 C         -0.67458200   -2.26994205   -0.67338300
 O         -0.01576500   -3.20029402    0.15989500
 C         -0.53366500   -0.83830398   -0.15690500
 C         -1.32107604    0.12140700   -1.05354404
 C         -2.77912593   -0.34438899   -1.11040294
 C         -3.62223101    0.50958699   -2.03604698
 O         -4.97469711    0.06322600   -2.07029891
 O         -2.81268191   -1.67044699   -1.65461004
 O         -1.17658997    1.47949505   -0.70280600
 O         -2.75176692   -2.82955909    0.37455899
 H         -3.21994495   -0.34416300   -0.10722900
 H         -2.21981192   -3.56895494   -1.46203804
 H         -0.90861899    0.01815700   -2.06287289
 C         -4.04179382   -3.43252611    0.29184800
 H         -0.41008300   -3.11625695    1.03853297
 H         -3.63340402    1.53727806   -1.67450404
 H         -3.18415499    0.49550101   -3.04206610
 H         -1.42516601    1.61562705    0.23975500
 H         -4.96124506   -0.86790299   -2.32455111
 H         -4.75251102   -2.77113008   -0.21147300
 H         -4.37312698   -3.61136389    1.31422698
 H         -3.98611689   -4.38452101   -0.24788401
 H         -0.19914500   -2.32789898   -1.65476799
 O         -0.80105698   -0.80001998    1.19683897
 H          0.57844299   -0.54602498   -0.30996701
 H         -1.05417895    0.11502600    1.52856600
 C          3.79662800    1.36326504   -1.28180206
 C          2.44215393    0.61966097   -1.48787498
 C          4.33793211    1.01755297    0.11100300
 C          4.38397694   -0.50710100    0.26206300
 C          2.92394805   -1.04900205    0.22401699
 N          2.07421708    0.06977500   -0.18358099
 H          3.64359307    2.44050288   -1.37117696
 H          1.65083802    1.29376495   -1.81350696
 H          5.33711386    1.43760002    0.23879001
 H          4.96454287   -0.95201999   -0.54837602
 H          2.58417892   -1.38617301    1.20266402
 H          4.49661207    1.05212402   -2.05874491
 H          2.53075194   -0.20924000   -2.18905210
 C          3.38706589    1.58724296    1.16990197
 H          4.84607410   -0.79010600    1.20909500
 H          2.80335093   -1.85340095   -0.50035000
 C          1.94477999    1.09569001    0.84921300
 H          3.40088391    2.67826200    1.16010904
 H          3.68319011    1.25011003    2.16509700
 H          1.31792498    1.89070499    0.44907999
 H          1.45796597    0.65629798    1.71853495
 O         -0.05518900    1.83968496    3.54067492
 O         -1.58769202    1.55183899    1.94075501
 C         -0.99154902    3.78443003    2.49383402
 C         -0.84792799    2.28376889    2.69418192
 H         -2.02870798    4.07792282    2.67328596
 H         -0.75597501    4.03289413    1.45551598
 H         -0.33293301    4.33869123    3.16171694
