55
wb97x-d4 ma-def2-tzvp(-f) cpcm(dmso) E: -1285.242901216885, G: -1284.8219654700001
 C         -2.12214208   -2.39955997    0.10300300
 C         -0.60115099   -2.16936302    0.15103699
 O         -0.00285800   -2.89143300    1.20729995
 C         -0.27074999   -0.67856401    0.22109900
 C         -1.00702798    0.07661300   -0.88617301
 C         -2.51026893   -0.20272601   -0.77017999
 C         -3.32716298    0.46378699   -1.85998905
 O         -2.90298700    0.09617300   -3.16932988
 O         -2.71778393   -1.61455905   -0.90905899
 O         -0.69083798    1.45118201   -0.92728603
 O         -2.65995312   -2.13961196    1.36588705
 H         -2.88894510    0.13597600    0.20048200
 H         -2.32812095   -3.43618989   -0.18812899
 H         -0.67091501   -0.34847501   -1.83585203
 C         -4.02153587   -2.54537702    1.48820901
 H         -0.32344601   -2.49587393    2.02924800
 H         -4.38278294    0.21015701   -1.71081197
 H         -3.21551394    1.54548395   -1.78144598
 H         -1.00281894    1.87677097   -0.09700200
 H         -3.01505089   -0.85838401   -3.25403094
 H         -4.30115604   -2.40241408    2.53148103
 H         -4.13315105   -3.60185099    1.21908295
 H         -4.67087984   -1.93918502    0.85064203
 H         -0.19338100   -2.56842494   -0.78023398
 O         -0.42244801   -0.21122301    1.51419103
 H          0.84637803   -0.58770400   -0.05059500
 H         -0.77652299    0.72625601    1.55943704
 C          3.94951892    1.62682998    0.43678400
 C          2.52126098    1.04095495    0.66213900
 C          4.74350786    0.65086901   -0.43930101
 C          4.08884287    0.57753599   -1.82359397
 C          2.57791090    0.24195001   -1.63941097
 N          2.40456891   -0.10848500   -0.23019600
 H          4.43597794    1.76449394    1.40355694
 H          2.37746692    0.69002497    1.68295705
 H          5.77727985    0.98849303   -0.53186297
 H          4.18054819    1.53015804   -2.34759307
 H          2.27038598   -0.60864002   -2.24695206
 H          3.87514710    2.60040808   -0.05128800
 H          1.73936796    1.75415504    0.40611401
 C          4.69996405   -0.73955899    0.20384701
 H          4.56850576   -0.19428100   -2.42839909
 H          1.93585706    1.09514105   -1.85187805
 C          3.22553205   -1.24454999    0.18635499
 H          5.06269598   -0.69371098    1.23239195
 H          5.32476616   -1.44299400   -0.34859699
 H          2.89066792   -1.56706297    1.17135704
 H          3.07441807   -2.04909801   -0.53242499
 O         -1.39576900    2.20981908    1.53534400
 O         -3.14694095    1.54577100    2.75248098
 C         -3.42307210    3.42830706    1.29270601
 C         -2.61542797    2.30667901    1.92657197
 H         -3.54717994    3.21038890    0.22771800
 H         -2.87858009    4.37152719    1.37302101
 H         -4.40400887    3.52339697    1.75717294
