55
wb97x-d4 ma-def2-tzvp(-f) cpcm(dmso) E: -1285.242584610644, G: -1284.8219125
 C         -2.15785289   -2.34586906    0.23368099
 C         -0.63940001   -2.11689401    0.33724400
 O         -0.11276000   -2.66933298    1.52495599
 C         -0.29218799   -0.63393497    0.19583400
 C         -0.94678003   -0.05355100   -1.05974805
 C         -2.45655894   -0.30518299   -0.98520899
 C         -3.18765998    0.17694201   -2.22199702
 O         -4.58656502   -0.07875700   -2.13288403
 O         -2.67368388   -1.72159302   -0.92399502
 O         -0.60478598    1.29472303   -1.29811704
 O         -2.76937604   -1.89527202    1.40572906
 H         -2.88437510    0.17119500   -0.09689000
 H         -2.36021900   -3.41368508    0.09032200
 H         -0.56397700   -0.62554401   -1.91129398
 C         -4.14615202   -2.25766110    1.49031305
 H         -0.48248801   -2.15761805    2.25728512
 H         -3.06526494    1.25541794   -2.32116199
 H         -2.76118803   -0.30899301   -3.10864806
 H         -0.92179000    1.84638405   -0.54884797
 H         -4.69252777   -1.02318597   -1.96304202
 H         -4.73759604   -1.73176003    0.73565203
 H         -4.48787308   -1.97060299    2.48424792
 H         -4.26710701   -3.33868909    1.35737896
 H         -0.18313900   -2.65699601   -0.49508801
 O         -0.52372497    0.02913200    1.38503003
 H          0.84465802   -0.59303600   -0.00775500
 H         -0.84793800    0.97350901    1.26201296
 C          4.62592077   -0.88282800    0.70093101
 C          3.13749194   -1.32284904    0.56202000
 C          4.82156086    0.41455901   -0.09052400
 C          3.99642992    1.52555096    0.56876099
 C          2.52431202    1.03003597    0.71138602
 N          2.43128800   -0.20455600   -0.06222200
 H          5.26924706   -1.67507398    0.31497300
 H          3.02411795   -2.19296694   -0.08357900
 H          5.87736320    0.69072002   -0.10365300
 H          4.38868809    1.76586199    1.55805504
 H          1.80945897    1.74568701    0.30752701
 H          4.86944008   -0.72627300    1.75352502
 H          2.67682791   -1.52306902    1.52824998
 C          4.31522703    0.20245001   -1.52185905
 H          4.02373219    2.43107891   -0.04030800
 H          2.26630402    0.79988497    1.74405301
 C          2.77439904   -0.02421200   -1.47237599
 H          4.80333614   -0.66446197   -1.97109699
 H          4.52668190    1.07453501   -2.14251590
 H          2.47432089   -0.91871202   -2.01720595
 H          2.21756601    0.83453500   -1.84368098
 O         -1.35778797    2.46051097    0.99193501
 O         -3.30925608    1.99504197    1.97612000
 C         -3.17612791    3.92667007    0.55972600
 C         -2.59617400    2.69762611    1.24132502
 H         -3.09052896    3.80816889   -0.52384597
 H         -2.59431291    4.80821896    0.83967298
 H         -4.22120905    4.07472086    0.82959902
