55
wb97x-d4 ma-def2-tzvp(-f) cpcm(dmso) E: -1285.242394362702, G: -1284.8218868000001
 C         -2.13402295    2.45610094    0.09691800
 C         -0.61990601    2.20505810   -0.01995800
 O         -0.06859500    2.87294006   -1.13551795
 C         -0.30618399    0.70837599   -0.04080900
 C         -0.99390399    0.00050200    1.12816596
 C         -2.49474692    0.29856899    1.06873906
 C         -3.25156903   -0.30320200    2.23524904
 O         -4.64473104   -0.01151400    2.15855002
 O         -2.67459512    1.71893895    1.17280698
 O         -0.69348902   -1.37733698    1.19377804
 O         -2.74276805    2.15338302   -1.12332594
 H         -2.91746807   -0.06488100    0.12671000
 H         -2.31382203    3.50598907    0.35663199
 H         -0.60439801    0.44802800    2.04840207
 C         -4.11209822    2.54769707   -1.17618096
 H         -0.43744299    2.44973707   -1.92270005
 H         -3.15074706   -1.38816798    2.21572304
 H         -2.82947206    0.07254100    3.17608190
 H         -0.98270202   -1.81111300    0.36226001
 H         -4.73007584    0.94720602    2.08437300
 H         -4.71811104    1.95612705   -0.48435301
 H         -4.45172596    2.37309790   -2.19661307
 H         -4.21555424    3.61080503   -0.93081802
 H         -0.16116799    2.63950896    0.87079799
 O         -0.53438598    0.18878400   -1.30097306
 H          0.82397598    0.61234599    0.17502800
 H         -0.84812498   -0.76636499   -1.28604305
 C          3.90944409   -1.45489299   -0.80140501
 C          2.41087890   -1.06997597   -0.60991198
 C          4.75949478   -0.56284702    0.11025900
 C          4.22340488   -0.66127801    1.54349399
 C          2.78408909   -0.06211000    1.57743597
 N          2.39872408    0.15526401    0.18378100
 H          4.19876623   -1.31453001   -1.84451497
 H          1.91222501   -0.87132502   -1.55803704
 H          5.80275679   -0.88198799    0.07908100
 H          4.19644022   -1.70362794    1.86654603
 H          2.75102210    0.89917600    2.08880806
 H          4.04038477   -2.50804400   -0.54810297
 H          1.85692704   -1.82900906   -0.05994100
 C          4.63849497    0.88782603   -0.36769199
 H          4.85819387   -0.10464800    2.23455095
 H          2.06714010   -0.74500698    2.03103399
 C          3.12629509    1.25589395   -0.44710100
 H          5.08878613    1.01087296   -1.35390401
 H          5.14611197    1.56012404    0.32656100
 H          2.77705193    1.34206700   -1.47499096
 H          2.89828992    2.17382503    0.09304000
 O         -1.30435395   -2.30850792   -1.27805901
 O         -3.38948488   -1.64780700   -1.74823201
 C         -2.89774704   -3.99433589   -1.79494405
 C         -2.52843094   -2.53127599   -1.60016894
 H         -2.21873903   -4.45173979   -2.51820302
 H         -3.92707992   -4.10157299   -2.13564396
 H         -2.77124906   -4.52368402   -0.84666097
