55
wb97x-d4 ma-def2-tzvp(-f) cpcm(dmso) E: -1285.242951457458, G: -1284.8218289600002
 C         -2.15788198   -2.41557193   -0.02415100
 C         -0.63353300   -2.21020794    0.03821900
 O         -0.04890400   -2.98841596    1.06153297
 C         -0.28428099   -0.72839701    0.17898500
 C         -1.00648999    0.08916100   -0.89218003
 C         -2.51340890   -0.17270599   -0.78675002
 C         -3.32318997    0.56034797   -1.83800602
 O         -2.91003704    0.25285900   -3.16656089
 O         -2.73967791   -1.57322299   -0.99706399
 O         -0.66565698    1.45849705   -0.86792302
 O         -2.69330406   -2.20945191    1.24984705
 H         -2.88330793    0.12134300    0.20139401
 H         -2.37861490   -3.43369699   -0.36549500
 H         -0.67628402   -0.29516900   -1.86101902
 C         -4.06198978   -2.59604812    1.35202396
 H         -0.37314999   -2.63180900    1.89960504
 H         -4.38232279    0.31676099   -1.69740701
 H         -3.19358993    1.63486397   -1.70537806
 H         -0.95432198    1.84619701   -0.01273300
 H         -3.03711390   -0.69457799   -3.29778695
 H         -4.19195414   -3.63724399    1.03572702
 H         -4.69933224   -1.95022094    0.74188203
 H         -4.34101486   -2.49521995    2.40037608
 H         -0.22848900   -2.57157397   -0.90945500
 O         -0.43525401   -0.31953201    1.49131298
 H          0.83572102   -0.63607103   -0.08535600
 H         -0.79697597    0.61431003    1.57976305
 C          4.69212103   -0.86362797   -0.13078600
 C          3.21176195   -1.28918505    0.10628200
 C          4.72565985    0.64720303   -0.38626701
 C          4.00075006    1.35925102    0.76163602
 C          2.49445009    0.96132702    0.71508503
 N          2.38711095   -0.13312700   -0.24435800
 H          5.09904814   -1.40252805   -0.98848897
 H          2.91949511   -2.12517190   -0.52824599
 H          5.75862408    0.99386603   -0.44955999
 H          4.43280602    1.06752503    1.72073102
 H          1.86381698    1.77554297    0.36212200
 H          5.28338385   -1.12307703    0.74872798
 H          3.01545191   -1.53585196    1.14896905
 C          3.99165201    0.94103801   -1.69961905
 H          4.08461523    2.44262910    0.66312701
 H          2.12967300    0.61183602    1.68053198
 C          2.56991196    0.30479500   -1.62766898
 H          4.53043795    0.51613700   -2.54795003
 H          3.90601110    2.01845694   -1.85295296
 H          2.47829008   -0.56927401   -2.27138495
 H          1.78613603    1.02197802   -1.86592698
 O         -3.28071308    1.39625895    2.54128194
 O         -1.36300099    2.10987496    1.64198995
 C         -3.22982097    3.57662702    1.54357100
 C         -2.60029292    2.25547600    1.95640099
 H         -2.61675596    4.40781498    1.89874494
 H         -4.24430418    3.67099690    1.92954099
 H         -3.25196195    3.62800288    0.45106500
