55
wb97x-d4 ma-def2-tzvp(-f) cpcm(dmso) E: -1285.243361076787, G: -1284.82182592
 C         -2.53735399    1.83914697   -0.69959098
 C         -1.13217199    1.24570596   -0.88042402
 O         -0.99954098    0.54226702   -2.09160399
 C         -0.70420200    0.45328000    0.35772401
 C         -0.87333399    1.30963397    1.60622799
 C         -2.31872606    1.82122004    1.67879295
 C         -2.54462194    2.75776601    2.85976696
 O         -2.53731108    2.06588793    4.10355806
 O         -2.60352707    2.58246708    0.50452203
 O         -0.52030998    0.57646197    2.77380204
 O         -3.48146200    0.81426001   -0.75371403
 H         -3.00186896    0.96834201    1.75563300
 H         -2.72790504    2.57259202   -1.49140203
 H         -0.20155700    2.17075706    1.55384004
 C         -4.82053614    1.29058504   -0.87290502
 H         -1.43522096   -0.33066601   -2.01620507
 H         -1.78469098    3.54976010    2.84696293
 H         -3.52672791    3.22313309    2.75508308
 H         -0.88207501   -0.31548399    2.66548800
 H         -1.74507797    1.50876904    4.10663414
 H         -5.13406706    1.81450105    0.03446500
 H         -5.45417690    0.41752100   -1.02600598
 H         -4.91235399    1.96475995   -1.73184001
 H         -0.45543900    2.10333800   -0.94038600
 O         -1.29535496   -0.77205300    0.57767099
 H          0.44110700    0.28310800    0.22840700
 H         -1.42646003   -1.30425406   -0.27427900
 C          3.82251191   -0.58701301   -1.35237205
 C          2.30420089   -0.25503099   -1.26803303
 C          4.30935192   -0.98170298    0.04604100
 C          3.39779806   -2.08718491    0.59094799
 C          1.97336400   -1.49375999    0.80420101
 N          1.97132301   -0.18215001    0.15722500
 H          4.37504005    0.28227800   -1.71453500
 H          2.06739092    0.70456100   -1.72552800
 H          5.34130192   -1.33412898    0.00015000
 H          3.35041904   -2.91914797   -0.11478800
 H          1.74543595   -1.34490299    1.85896599
 H          3.96944809   -1.40461504   -2.06005597
 H          1.68560100   -1.03540301   -1.70831394
 C          4.21292210    0.24295101    0.96385503
 H          3.77213597   -2.46754098    1.54279995
 H          1.20342100   -2.10501003    0.33418900
 C          2.76513600    0.81170601    0.88050598
 H          4.91899395    1.01541102    0.65512699
 H          4.44132900   -0.03675100    1.99417198
 H          2.72110796    1.74697399    0.32341400
 H          2.32454991    0.95276201    1.86682701
 O         -1.79707897   -2.03966999   -1.61521494
 O          0.15265900   -3.13041401   -1.51380897
 C         -1.29313695   -3.54394102   -3.38300991
 C         -0.92836499   -2.86844802   -2.06981707
 H         -1.40446198   -2.78187799   -4.15886116
 H         -2.25626612   -4.04899502   -3.27917004
 H         -0.53115898   -4.26176119   -3.68513107
