55
wb97x-d4 ma-def2-tzvp(-f) cpcm(dmso) E: -1285.24217445595, G: -1284.82177924
 C         -2.00236011    2.18929291   -0.70383501
 C         -0.50683898    1.82726502   -0.68493700
 O          0.08708000    2.01780510   -1.95189905
 C         -0.28439400    0.41008699   -0.15418300
 C         -1.00005198    0.23589700    1.18840206
 C         -2.48579311    0.55297601    0.97721499
 C         -3.29867005    0.44683701    2.25156903
 O         -4.67047405    0.75381202    2.01792312
 O         -2.59519696    1.91739404    0.54880798
 O         -0.76558602   -1.01163602    1.80135298
 O         -2.62293792    1.50616705   -1.75253403
 H         -2.91524100   -0.10588200    0.21483199
 H         -2.11631107    3.27090597   -0.83969802
 H         -0.59746498    0.99604201    1.86547399
 C         -3.94646311    1.97108901   -2.01206708
 H         -0.32929599    1.38626206   -2.55400491
 H         -3.25983000   -0.57576299    2.62590408
 H         -2.87554789    1.11676896    3.01072502
 H         -1.09941006   -1.73031700    1.21634102
 H         -4.70179081    1.62927902    1.61230099
 H         -4.60994005    1.75709605   -1.16955602
 H         -4.29962111    1.44158196   -2.89630008
 H         -3.94247389    3.04950309   -2.20644307
 H         -0.02270400    2.52683806    0.00006800
 O         -0.56057298   -0.51849699   -1.13742900
 H          0.85237300    0.34435201    0.07635700
 H         -0.89935601   -1.39105701   -0.77492899
 C          4.62841606    1.09027505    0.30659899
 C          3.09656596    1.36818004    0.26205701
 C          4.87991810   -0.32665199   -0.22175001
 C          4.20470285   -0.47463900   -1.58933401
 C          2.66269803   -0.36917800   -1.39203596
 N          2.44925404    0.08665400   -0.01930900
 H          4.99225807    1.18229198    1.33175802
 H          2.72050691    1.74360597    1.21313798
 H          5.95226479   -0.50882900   -0.31078899
 H          4.54472780    0.31085801   -2.26715899
 H          2.16618109   -1.33166599   -1.50533295
 H          5.14321089    1.83145702   -0.30674699
 H          2.82754993    2.05968189   -0.53548199
 C          4.25253582   -1.33470297    0.74864900
 H          4.44279814   -1.44024301   -2.03798294
 H          2.21029401    0.35450399   -2.06747198
 C          2.76185298   -0.94095898    0.97418898
 H          4.77213192   -1.32653403    1.70805800
 H          4.31104517   -2.34375811    0.33607599
 H          2.59349298   -0.51319098    1.96174300
 H          2.08652711   -1.78203106    0.82188100
 O         -1.51504803   -2.71397495   -0.10672700
 O         -3.31915998   -2.66564894   -1.42342806
 C         -3.52714610   -3.63579202    0.76048303
 C         -2.75126600   -2.95935512   -0.35902801
 H         -2.97893095   -4.50902987    1.12017095
 H         -4.52345181   -3.93010402    0.43205401
 H         -3.61505699   -2.93531895    1.59626198
