55
wb97x-d4 ma-def2-tzvp(-f) cpcm(dmso) E: -1285.246195138489, G: -1284.82515398
 C         -2.27148604   -2.25925589   -0.14675100
 C         -0.87167501   -1.67286503    0.10123300
 O         -0.41910699   -1.88971496    1.41045403
 C         -0.79403698   -0.21047699   -0.34838700
 C         -1.32187700   -0.06075200   -1.76811695
 C         -2.73149490   -0.66053998   -1.85862100
 C         -3.28702497   -0.62241000   -3.27684808
 O         -3.60874701    0.70049298   -3.69168591
 O         -2.66917109   -2.03805494   -1.48909903
 O         -1.30682397    1.30491495   -2.16636896
 O         -3.17013311   -1.72100306    0.77346897
 H         -3.40485501   -0.11451200   -1.18886101
 H         -2.23263907   -3.35003090   -0.04517600
 H         -0.67282403   -0.60634899   -2.45865011
 C         -4.43465519   -2.38032103    0.77324700
 H         -0.92980599   -1.35972500    2.06870890
 H         -2.56396890   -1.08329701   -3.96233892
 H         -4.21009207   -1.20467103   -3.30927610
 H         -1.56721795    1.82053196   -1.38787305
 H         -2.84571099    1.25481796   -3.47005296
 H         -4.30571413   -3.45706701    0.93123698
 H         -4.96564388   -2.21425509   -0.16827400
 H         -5.01147079   -1.95756102    1.59528100
 H         -0.20282200   -2.23152494   -0.56119502
 O         -1.38882303    0.73452902    0.45630801
 H          0.34929699    0.02349900   -0.39615700
 H         -0.93452799    0.81621897    1.36643696
 C          3.73063898    1.04514897   -1.87078202
 C          2.32199311    0.38499999   -1.80865300
 C          4.21258497    1.29641104   -0.43725201
 C          4.10047388   -0.01020000    0.35644400
 C          2.59336805   -0.36942300    0.49768600
 N          1.86523795    0.50872099   -0.42241400
 H          3.67547297    1.98608994   -2.42170405
 H          1.60465896    0.89078802   -2.45385790
 H          5.24669600    1.64499497   -0.44473401
 H          4.62800312   -0.81380397   -0.16123500
 H          2.21478295   -0.18148400    1.50112605
 H          4.41365910    0.37886700   -2.39996600
 H          2.35270095   -0.67556697   -2.05681491
 C          3.30574989    2.34819007    0.21228100
 H          4.53540611    0.09860400    1.35123205
 H          2.39036107   -1.40318596    0.22111000
 C          1.82507098    1.89727700    0.03877600
 H          3.43897891    3.32262611   -0.26021600
 H          3.54145503    2.44772601    1.27371502
 H          1.30307496    2.48367405   -0.71649498
 H          1.27383006    1.93100500    0.97744799
 O         -0.26536000    1.18499398    2.70370412
 O         -1.33400702   -0.56908399    3.57627106
 C         -0.23015700    0.94551003    5.06941509
 C         -0.65356600    0.48091400    3.68639207
 H         -0.77035397    0.40925300    5.84907103
 H         -0.38861600    2.02042389    5.17179108
 H          0.84091699    0.75590903    5.18501520
