55
wb97x-d4 ma-def2-tzvp(-f) cpcm(dmso) E: -1285.24354773351, G: -1284.8217627400002
 C         -2.09598398    2.31943393   -0.85817200
 C         -0.59877002    1.97957599   -0.96620601
 O         -0.15555200    2.02483606   -2.30571890
 C         -0.29594699    0.64317602   -0.29539499
 C         -0.86611402    0.61538601    1.12295997
 C         -2.37699389    0.87062103    1.02687001
 C         -3.11323404    0.88035101    2.36275506
 O         -3.30155492   -0.41176301    2.91222692
 O         -2.55478311    2.17992711    0.46919200
 O         -0.50238800   -0.55306900    1.81896698
 O         -2.80089307    1.51462197   -1.75803804
 H         -2.84472799    0.12742400    0.37318000
 H         -2.24962902    3.37728405   -1.09975505
 H         -0.42884800    1.46008301    1.66569805
 C         -4.14805079    1.94262600   -1.95204496
 H         -0.67986101    1.37779796   -2.79644299
 H         -2.55359912    1.47638500    3.09079504
 H         -4.07792997    1.37608004    2.19231892
 H         -0.98557103   -1.31815696    1.42219305
 H         -3.44797802   -1.06079304    2.18695092
 H         -4.17371607    2.98631310   -2.28464103
 H         -4.72783709    1.84048998   -1.03064406
 H         -4.57508087    1.30246496   -2.72324896
 H         -0.05693500    2.75758100   -0.42414099
 O         -0.65246999   -0.41331100   -1.11796796
 H          0.85865402    0.59591001   -0.16417500
 H         -0.95019197   -1.20097804   -0.60674399
 C          4.55506277    0.19279200   -1.09120405
 C          3.11464596    0.78514999   -1.11632299
 C          4.73125505   -0.59946400    0.20944700
 C          3.79313111   -1.81153202    0.18143100
 C          2.35276890   -1.31356597   -0.14026199
 N          2.38364911    0.14412600   -0.02192200
 H          5.27719879    1.00850296   -1.15080905
 H          3.10847211    1.85971296   -0.93757802
 H          5.76680708   -0.92851400    0.31119001
 H          4.10273981   -2.52626491   -0.58254200
 H          1.61578703   -1.69903696    0.56228298
 H          4.70276594   -0.45887500   -1.95462406
 H          2.59648108    0.56804103   -2.04944611
 C          4.34480715    0.30029699    1.38926399
 H          3.80199909   -2.31859708    1.14825797
 H          2.05203009   -1.55911696   -1.15775394
 C          2.82014203    0.60189998    1.29895306
 H          4.91080093    1.23317003    1.35409200
 H          4.55563688   -0.19193500    2.33997607
 H          2.60673094    1.66735899    1.38047695
 H          2.24505711    0.05674300    2.04545498
 O         -1.58290505   -2.49574208    0.36106300
 O         -3.72329712   -2.30902910    0.98459297
 C         -3.18520999   -3.83562398   -0.77513999
 C         -2.81791496   -2.80160809    0.27512300
 H         -2.94471788   -3.43668795   -1.76415002
 H         -4.24432898   -4.08711290   -0.73209399
 H         -2.58362293   -4.73539019   -0.62852502
