55
wb97x-d4 ma-def2-tzvp(-f) cpcm(dmso) E: -1285.242823679757, G: -1284.82175822
 C         -2.13438392    2.78503609   -0.33895600
 C         -0.70288599    2.26605892   -0.56863397
 O         -0.23060200    2.61101794   -1.85400498
 C         -0.60677201    0.76368201   -0.30559000
 C         -1.19156599    0.44106001    1.07291305
 C         -2.63682795    0.94933099    1.12222397
 C         -3.27800703    0.72901499    2.47760296
 O         -4.62017012    1.20593500    2.50688696
 O         -2.62137794    2.36939311    0.92016602
 O         -1.05295599   -0.90991700    1.45216203
 O         -2.94582510    2.36423111   -1.39459503
 H         -3.23979592    0.46912700    0.34376901
 H         -2.12175894    3.87989998   -0.28759700
 H         -0.62045902    1.02637398    1.80169904
 C         -4.21872997    3.00746799   -1.41233599
 H         -0.77767903    2.13222909   -2.49109507
 H         -3.31335807   -0.33778200    2.69561505
 H         -2.67435002    1.22646296    3.24739194
 H         -1.40396202   -1.50494802    0.75015998
 H         -4.59956598    2.13304591    2.23866892
 H         -4.09782505    4.09661913   -1.42173696
 H         -4.81805706    2.71681499   -0.54503101
 H         -4.72113705    2.68869805   -2.32505012
 H         -0.06344600    2.77927303    0.15266600
 O         -1.11103106    0.06501800   -1.38573301
 H          0.52136201    0.52356702   -0.21305300
 H         -1.33050799   -0.88969302   -1.16852200
 C          4.28858089    0.21168201   -0.93646401
 C          2.81106901    0.67912298   -1.09769297
 C          4.30754280   -1.02731502   -0.03446900
 C          3.32509899   -2.06217194   -0.59484100
 C          1.88244605   -1.48745000   -0.47167099
 N          2.02949405   -0.07623900   -0.11908000
 H          4.88381910    1.01234400   -0.49315399
 H          2.69211102    1.74140000   -0.88870400
 H          5.31381893   -1.44799399    0.00414800
 H          3.55376601   -2.27500701   -1.64076698
 H          1.31468594   -1.96996295    0.32185999
 H          4.70003080   -0.01645100   -1.92083204
 H          2.41348100    0.45427200   -2.08653808
 C          3.85157704   -0.62353599    1.37255096
 H          3.38254189   -2.99690604   -0.03490300
 H          1.32990599   -1.55723596   -1.40787601
 C          2.48875499    0.12354500    1.25554097
 H          4.58066702    0.03736300    1.84379303
 H          3.73453808   -1.50845504    2.00106692
 H          2.59118795    1.19508302    1.42214596
 H          1.73975301   -0.28386301    1.93306506
 O         -1.76473498   -2.34903097   -0.68577999
 O         -0.51979202   -3.40772009   -2.20730209
 C         -0.85150599   -4.45757008   -0.07696700
 C         -1.04765797   -3.33653307   -1.08531404
 H         -0.31070599   -5.29578686   -0.51503801
 H         -1.82085896   -4.79422808    0.29707900
 H         -0.28794199   -4.06837416    0.77615201
