55
wb97x-d4 ma-def2-tzvp(-f) cpcm(dmso) E: -1285.243235572279, G: -1284.82173439
 C         -2.08525705    2.37039590   -0.15079699
 C         -0.56873900    2.13127589   -0.27665600
 O         -0.06261600    2.65097308   -1.48768795
 C         -0.23492500    0.65298802   -0.09480400
 C         -0.86195099    0.10495300    1.18531299
 C         -2.37359691    0.36044300    1.11304104
 C         -3.12736893   -0.16765100    2.32370710
 O         -4.45865583   -0.55394298    1.99800897
 O         -2.59445190    1.77466798    1.02224302
 O         -0.52776599   -1.24697495    1.40116704
 O         -2.70812392    1.90118897   -1.31166506
 H         -2.77514005   -0.12535100    0.22020499
 H         -2.27716804    3.44277501   -0.03000600
 H         -0.45632601    0.67993701    2.02445889
 C         -4.07451487    2.29834008   -1.41136396
 H         -0.52668500    2.19762206   -2.20437503
 H         -2.57845998   -1.01534402    2.74237108
 H         -3.18700910    0.61590397    3.08249807
 H         -1.01502204   -1.80106902    0.73890400
 H         -4.36392212   -1.30258095    1.38069904
 H         -4.68189621    1.80890799   -0.64523202
 H         -4.42066193    1.99464202   -2.39880204
 H         -4.16575480    3.38539696   -1.30799305
 H         -0.09229900    2.68763900    0.53332698
 O         -0.50269198   -0.06014900   -1.25150299
 H          0.91602999    0.59523398    0.08167200
 H         -0.86660802   -0.95463502   -1.06227398
 C          4.02792501   -1.42890894   -0.70522797
 C          2.51816392   -1.06615996   -0.59346902
 C          4.81531811   -0.52834600    0.25339100
 C          4.19422293   -0.62804598    1.65181196
 C          2.75748205   -0.02965400    1.59951198
 N          2.44246697    0.17080399    0.18278100
 H          4.37139511   -1.28019500   -1.73073900
 H          2.06339788   -0.88857102   -1.56751704
 H          5.86117077   -0.83850801    0.28548899
 H          4.14935684   -1.67084599    1.97188997
 H          2.69771099    0.93902802    2.09452391
 H          4.16133881   -2.48109007   -0.44890299
 H          1.94797397   -1.82660997   -0.06193000
 C          4.70986986    0.92068702   -0.23357999
 H          4.78700018   -0.07234700    2.38005209
 H          2.01516104   -0.70474702    2.02232099
 C          3.20403409    1.26877403   -0.41812399
 H          5.22612000    1.04871404   -1.18634105
 H          5.16126394    1.59877205    0.49331301
 H          2.92213893    1.33379304   -1.46818697
 H          2.93012691    2.19344902    0.08878700
 O         -1.66722202   -2.45848393   -0.65818101
 O         -3.73544192   -2.60773706    0.18066500
 C         -3.41221595   -3.10735893   -2.13677907
 C         -2.91735291   -2.69681501   -0.75968498
 H         -2.77810502   -3.89873505   -2.54130006
 H         -3.33257699   -2.24681306   -2.80736899
 H         -4.44915390   -3.43963099   -2.10166597
