55
wb97x-d4 ma-def2-tzvp(-f) cpcm(dmso) E: -1285.243257108962, G: -1284.82161685
 C         -2.09340501    2.33730292   -0.09672900
 C         -0.57576901    2.10525703   -0.21790400
 O         -0.06503200    2.64182901   -1.41966999
 C         -0.23574400    0.62635201   -0.05303300
 C         -0.86951703    0.05674000    1.21450996
 C         -2.38105893    0.30927801    1.13433099
 C         -3.14638090   -0.24408799    2.32591701
 O         -4.47900200   -0.60593402    1.97894299
 O         -2.60496998    1.72403502    1.06642902
 O         -0.53372800   -1.29816902    1.40936399
 O         -2.70868897    1.87973797   -1.26630294
 H         -2.77279997   -0.15993001    0.22860000
 H         -2.29083705    3.40716195    0.03680400
 H         -0.47091699    0.61867899    2.06565404
 C         -4.07870817    2.26458907   -1.36388302
 H         -0.52012199    2.19221807   -2.14443398
 H         -2.60890603   -1.10909700    2.72359395
 H         -3.20254588    0.51800698    3.10657096
 H         -1.02989697   -1.84182596    0.74609798
 H         -4.38854218   -1.33697903    1.33978999
 H         -4.41952276    1.97037196   -2.35604596
 H         -4.18113708    3.34919810   -1.24633205
 H         -4.68287182    1.75894701   -0.60581201
 H         -0.10572500    2.65335703    0.60145402
 O         -0.49284601   -0.07437600   -1.22117603
 H          0.91362798    0.57377398    0.12848300
 H         -0.86170697   -0.96896303   -1.04285502
 C          4.03814077   -1.40836096   -0.71655399
 C          2.52557111   -1.08100200   -0.55147099
 C          4.83646822   -0.48268500    0.20857200
 C          4.25450420   -0.57579601    1.62440705
 C          2.81331205    0.01424800    1.60580099
 N          2.45112491    0.17400900    0.19555500
 H          4.34146214   -1.25823605   -1.75450897
 H          2.02622795   -0.94135302   -1.50978398
 H          5.88811302   -0.77410001    0.21549200
 H          4.22480679   -1.61645401    1.95312297
 H          2.76499295    0.99560499    2.07630610
 H          4.20489597   -2.45558095   -0.45947200
 H          1.99755204   -1.84033799    0.02342700
 C          4.69074202    0.95795602   -0.29335299
 H          4.86208200   -0.01066000    2.33286691
 H          2.09034395   -0.65270197    2.07326603
 C          3.17448902    1.26970601   -0.45496601
 H          5.18642712    1.08645105   -1.25691295
 H          5.13974285    1.65473902    0.41725400
 H          2.86805010    1.29646897   -1.49993598
 H          2.89219809    2.20356011    0.02984100
 O         -1.69533598   -2.46901703   -0.66557598
 O         -3.78686595   -2.62590408    0.11075500
 C         -3.41391993   -2.98579597   -2.22543192
 C         -2.94649196   -2.67380810   -0.81304997
 H         -3.29190397   -2.08859491   -2.83910394
 H         -4.45981598   -3.29057002   -2.23848605
 H         -2.79015207   -3.76925611   -2.66042399
