55
wb97x-d4 ma-def2-tzvp(-f) cpcm(dmso) E: -1285.242505921972, G: -1284.8216129900002
 C         -2.06873488   -2.78252292   -0.15804900
 C         -0.63588899   -2.23606491   -0.01973000
 O          0.02046600   -2.78026605    1.10576200
 C         -0.61808902   -0.70933598   -0.01174600
 C         -1.39823997   -0.17579301   -1.21267605
 C         -2.82291508   -0.74076700   -1.14347303
 C         -3.72113490   -0.24220800   -2.26084495
 O         -3.17102003   -0.41937700   -3.56400299
 O         -2.74258494   -2.16812992   -1.23567903
 O         -1.36810505    1.22934794   -1.33663201
 O         -2.73392797   -2.61270905    1.05963802
 H         -3.28721094   -0.45623299   -0.19198699
 H         -2.03000402   -3.84652495   -0.41814399
 H         -0.92468703   -0.57999402   -2.11199093
 C         -3.96099901   -3.33581090    1.13039899
 H         -0.45648399   -2.46967101    1.88699305
 H         -4.65330410   -0.81050903   -2.23325801
 H         -3.95352006    0.81058300   -2.07997799
 H         -1.61409795    1.64527905   -0.48282301
 H         -2.52477193    0.28011599   -3.71345901
 H         -3.79258299   -4.39756680    0.91798502
 H         -4.69363022   -2.93693805    0.42339000
 H         -4.33753300   -3.22220898    2.14651608
 H         -0.08614300   -2.57435203   -0.90077901
 O         -0.99532199   -0.22872600    1.22482300
 H          0.49731901   -0.41253701   -0.18431400
 H         -1.21537006    0.75096798    1.19893396
 C          3.64903688    0.89619100    1.49240005
 C          2.22933793    0.27154699    1.35513306
 C          4.39176083    0.71481103    0.16290499
 C          3.69196892    1.55557096   -0.91063899
 C          2.17643690    1.20568895   -0.89547598
 N          2.03264809    0.00365800   -0.06893400
 H          4.18001986    0.39951700    2.30621910
 H          2.14300895   -0.67518300    1.88691700
 H          5.43238020    1.02670801    0.26816601
 H          3.81423306    2.62153292   -0.71113598
 H          1.79831898    0.98212302   -1.89256001
 H          3.56547904    1.95728695    1.73695898
 H          1.45091105    0.95982200    1.68062794
 C          4.32265520   -0.76093400   -0.24621899
 H          4.11523294    1.34114099   -1.89410901
 H          1.57341301    1.98846304   -0.43848300
 C          2.83767509   -1.12068701   -0.54897398
 H          4.70175886   -1.39552605    0.55737799
 H          4.92372179   -0.94454402   -1.13824797
 H          2.51907301   -2.02073503   -0.02465500
 H          2.65240788   -1.23445702   -1.61645496
 O          0.29933801    3.00429201    1.40177596
 O         -1.79566097    2.26355195    1.15671003
 C         -1.50317597    4.55171919    1.73059404
 C         -0.93226600    3.17890310    1.41121697
 H         -0.71609700    5.25571585    1.99897802
 H         -2.22237706    4.47000790    2.54865503
 H         -2.04272389    4.92576694    0.85637701
