55
wb97x-d4 ma-def2-tzvp(-f) cpcm(dmso) E: -1285.24661315497, G: -1284.82478491
 C         -2.10929990    2.56951499   -0.62567401
 C         -0.65113902    2.09054399   -0.71486700
 O         -0.12106000    2.27541494   -2.01160502
 C         -0.50503600    0.64915502   -0.23646601
 C         -1.15468705    0.46900699    1.13679695
 C         -2.61317801    0.93494499    1.05265498
 C         -3.34562802    0.85638201    2.37871003
 O         -2.70770907    1.60919201    3.40670300
 O         -2.63912797    2.31299090    0.65798903
 O         -1.02251899   -0.84119701    1.62826097
 O         -2.85361600    1.96747994   -1.64363503
 H         -3.15473890    0.32487100    0.32101601
 H         -2.14396906    3.65989494   -0.73170298
 H         -0.63250202    1.13112199    1.83388495
 C         -4.13980007    2.55946207   -1.81478405
 H         -0.57058799    1.64356303   -2.58868694
 H         -4.37471294    1.20274401    2.22996497
 H         -3.37314105   -0.18011700    2.71547389
 H         -1.62248504   -1.46361601    1.13787997
 H         -2.68205690    2.52960300    3.11808491
 H         -4.59368706    2.08478308   -2.68415499
 H         -4.04510117    3.63666797   -1.99236000
 H         -4.77002096    2.39144301   -0.93704200
 H         -0.07419600    2.72914410   -0.04238300
 O         -0.92079699   -0.22242600   -1.22172594
 H          0.62728399    0.48596299   -0.06199600
 H         -0.85789901   -1.19198596   -0.96080899
 C          4.46979809    0.75064301   -0.39980301
 C          2.96990705    1.15708601   -0.52577001
 C          4.54266405   -0.71333402    0.04612800
 C          3.73540092   -1.57255304   -0.93315703
 C          2.23795390   -1.14600396   -0.85008800
 N          2.19084811    0.03813600    0.00296900
 H          4.96636391    1.39430201    0.32855800
 H          2.73518109    2.04565501    0.05921300
 H          5.58193398   -1.04638100    0.06539500
 H          4.10228109   -1.43263495   -1.95152998
 H          1.61255801   -1.91331995   -0.39690799
 H          4.95983505    0.88523102   -1.36541498
 H          2.67149496    1.31325495   -1.56086695
 C          3.92692494   -0.83963698    1.44421005
 H          3.82068801   -2.63056111   -0.68040299
 H          1.83259904   -0.88070601   -1.82599199
 C          2.48298907   -0.25298399    1.40664005
 H          4.51880121   -0.29020599    2.17790604
 H          3.89040494   -1.88716197    1.74872601
 H          2.40399194    0.67920399    1.96504796
 H          1.73950303   -0.96026802    1.76980102
 O         -0.84518701   -2.81091499   -0.96202302
 O         -2.53450894   -2.71072602    0.49215600
 C         -2.20201802   -4.75791883   -0.69047099
 C         -1.82915497   -3.32319689   -0.35554901
 H         -1.34225094   -5.30580521   -1.07651496
 H         -2.97443509   -4.73927498   -1.46526599
 H         -2.61315393   -5.26446819    0.18347999
