55
wb97x-d4 ma-def2-tzvp(-f) cpcm(dmso) E: -1285.242641464769, G: -1284.82156561
 C         -1.95355499   -2.25111294    0.48550200
 C         -0.46087599   -1.88286805    0.50355500
 O          0.15558000   -2.28579497    1.70865202
 C         -0.25954199   -0.39180201    0.23184600
 C         -1.01373303    0.02532600   -1.03103995
 C         -2.48951197   -0.37277201   -0.89539701
 C         -3.30781507   -0.06199400   -2.13359308
 O         -2.79168797   -0.68682498   -3.30489612
 O         -2.56472993   -1.79075205   -0.70174700
 O         -0.82709700    1.38323200   -1.36485100
 O         -2.55811095   -1.73429203    1.63373101
 H         -2.94710398    0.13928600   -0.04388600
 H         -2.06532192   -3.34116912    0.45669299
 H         -0.59714699   -0.56092799   -1.85486197
 C         -3.89153409   -2.20195103    1.82473600
 H         -0.23400100   -1.74982297    2.41273189
 H         -4.34334087   -0.37273601   -1.95437300
 H         -3.29358101    1.01306105   -2.31330204
 H         -1.23862398    1.94438303   -0.66636997
 H         -2.80571008   -1.64014804   -3.15611410
 H         -4.56117821   -1.80263996    1.05793595
 H         -4.21203423   -1.85077298    2.80515099
 H         -3.92142510   -3.29707789    1.79839206
 H          0.01355100   -2.44630194   -0.30284899
 O         -0.48661000    0.35002699    1.37751698
 H          0.86001003   -0.27743500   -0.03377100
 H         -0.96635199    1.20750296    1.19985402
 C          3.99303699    1.93303704   -0.04023400
 C          2.53214312    1.46749604    0.25039601
 C          4.76713514    0.76183599   -0.65554899
 C          4.11859322    0.38028800   -1.99109101
 C          2.61326003    0.05906300   -1.73975301
 N          2.41203308    0.11704300   -0.29280099
 H          4.46041203    2.25709295    0.89094400
 H          2.31970310    1.42130899    1.31768405
 H          5.80814219    1.04793298   -0.81621200
 H          4.19651508    1.20151198   -2.70546794
 H          2.34444404   -0.93957198   -2.08236408
 H          3.97635698    2.78000593   -0.72856498
 H          1.79399896    2.09889507   -0.24225099
 C          4.69605112   -0.43906400    0.29395899
 H          4.61468220   -0.49336499   -2.41773009
 H          1.95422900    0.79369497   -2.20013094
 C          3.20465708   -0.87046403    0.43852100
 H          5.09798479   -0.17365700    1.27347004
 H          5.27661610   -1.27519703   -0.09936700
 H          2.87531304   -0.86946601    1.47655702
 H          3.01357508   -1.84771204   -0.00319700
 O         -3.89236498    3.09828997    0.24510300
 O         -1.80638695    2.55203795    0.82359600
 C         -3.55769610    1.94576299    2.31918192
 C         -3.07452202    2.58934593    1.02869904
 H         -3.05377698    2.40851688    3.17060494
 H         -3.28619099    0.88629597    2.31518197
 H         -4.63646078    2.04541898    2.43156505
