55
wb97x-d4 ma-def2-tzvp(-f) cpcm(dmso) E: -1285.242501497412, G: -1284.8215650700001
 C         -2.05500507   -2.34440207   -0.50478703
 C         -0.53866500   -2.09835196   -0.40955299
 O          0.09089300   -3.06311202    0.40727600
 C         -0.23781700   -0.67235798    0.05521900
 C         -1.00218797    0.33489600   -0.80664402
 C         -2.49532199   -0.00487700   -0.74816197
 C         -3.33621693    0.90813500   -1.61636698
 O         -4.72039318    0.57998800   -1.53054297
 O         -2.67241406   -1.32952094   -1.26993704
 O         -0.71144700    1.67793703   -0.48362601
 O         -2.58374000   -2.44125104    0.78394902
 H         -2.85869098    0.03491800    0.28347400
 H         -2.24354291   -3.27026391   -1.06069398
 H         -0.67376399    0.18603700   -1.84044600
 C         -3.93919206   -2.88458705    0.79952002
 H         -0.23283400   -2.91965890    1.30701494
 H         -3.23073697    1.93677497   -1.27191305
 H         -2.98708892    0.84723997   -2.65493202
 H         -1.01120806    1.85602200    0.43494001
 H         -4.80821514   -0.35163701   -1.76769400
 H         -4.21653223   -3.01485801    1.84504998
 H         -4.03684282   -3.83996296    0.27168199
 H         -4.59902287   -2.14558005    0.33651501
 H         -0.13610400   -2.22265697   -1.41746294
 O         -0.39054999   -0.56477600    1.42545795
 H          0.87548298   -0.49018699   -0.18303899
 H         -0.79072201    0.31131399    1.71308899
 C          4.11132383    0.68744397   -1.93078005
 C          2.59240198    0.40586901   -1.72795105
 C          4.79119682    0.68562102   -0.55671602
 C          4.72021389   -0.72902101    0.02893300
 C          3.23520708   -1.20047700   -0.00455300
 N          2.43642497   -0.02204000   -0.33831200
 H          4.23074198    1.65300500   -2.42459393
 H          1.98526597    1.29856801   -1.87207401
 H          5.83181715    1.00014496   -0.65329897
 H          5.32730389   -1.42356706   -0.55365700
 H          2.90284491   -1.57801104    0.96167803
 H          4.54885483   -0.08159600   -2.57025003
 H          2.23313904   -0.39123201   -2.37810993
 C          4.03626013    1.64264703    0.37424499
 H          5.08667183   -0.73272002    1.05725706
 H          3.05889797   -1.95332503   -0.77180701
 C          2.60561204    1.06992304    0.61717498
 H          3.96476603    2.63396811   -0.07741000
 H          4.54913282    1.73843205    1.33235502
 H          1.82838404    1.81011796    0.43446299
 H          2.49389291    0.65837902    1.61965203
 O         -1.42257202    1.73426902    2.10641193
 O         -3.31519604    0.75005502    2.77274895
 C         -3.30260110    3.13312292    2.49607897
 C         -2.65588593    1.75711000    2.46492600
 H         -3.22306991    3.59272599    1.50727904
 H         -2.75974011    3.77218294    3.19724107
 H         -4.34941101    3.07318306    2.79168200
