55
wb97x-d4 ma-def2-tzvp(-f) cpcm(dmso) E: -1285.242331877533, G: -1284.82155596
 C         -2.17600393    2.03731108   -0.71271998
 C         -0.65522498    1.81239903   -0.75505501
 O         -0.15341300    1.93749595   -2.06884098
 C         -0.28313300    0.46774799   -0.12386800
 C         -0.91740799    0.33799499    1.26489496
 C         -2.43000793    0.55969501    1.14817405
 C         -3.12348199    0.53693599    2.49565792
 O         -4.52819920    0.73248398    2.36201906
 O         -2.66165209    1.86409497    0.60240901
 O         -0.58160102   -0.85962403    1.92959297
 O         -2.78407097    1.17670202   -1.62882805
 H         -2.87946892   -0.19559300    0.49585599
 H         -2.40299010    3.08011889   -0.96312702
 H         -0.51442802    1.15539706    1.87186205
 C         -4.17265606    1.44423902   -1.81342697
 H         -0.50637102    1.19196904   -2.57342291
 H         -2.98064089   -0.43635800    2.96398211
 H         -2.68426704    1.30700600    3.14246106
 H         -0.94253403   -1.62085104    1.42343903
 H         -4.65723991    1.55909503    1.88032496
 H         -4.51441002    0.79443002   -2.61844802
 H         -4.32817698    2.49173999   -2.09517097
 H         -4.73897791    1.22537506   -0.90382898
 H         -0.20186700    2.60951304   -0.16195901
 O         -0.50016999   -0.56246698   -1.01645100
 H          0.86362100    0.51399398    0.05962200
 H         -0.84773397   -1.40193295   -0.58447099
 C          4.44855595    0.09251800   -1.25116301
 C          2.91225600    0.35178801   -1.26760697
 C          4.82559681   -0.50065798    0.11050900
 C          3.95030808   -1.73059905    0.37236601
 C          2.47028589   -1.26305795    0.50222999
 N          2.43756199    0.14222699    0.10030400
 H          4.98233223    1.03017294   -1.41794395
 H          2.67236090    1.37211299   -1.56136501
 H          5.87993288   -0.78286898    0.11731600
 H          4.04527187   -2.44378710   -0.44866401
 H          2.10521603   -1.32495105    1.52531803
 H          4.70545101   -0.59544998   -2.05812407
 H          2.38279510   -0.34668100   -1.91428399
 C          4.55603790    0.54412401    1.20016599
 H          4.24823523   -2.23013902    1.29555905
 H          1.80280101   -1.82098699   -0.15414600
 C          3.08027911    1.02912104    1.06987202
 H          5.22429705    1.39956403    1.08969998
 H          4.71643019    0.11004700    2.18886590
 H          3.01494193    2.04749298    0.68847603
 H          2.54047704    0.95658797    2.01336193
 O         -1.42932796   -2.67929411    0.15064500
 O         -3.28802991   -3.77785707    0.71142298
 C         -3.23807096   -2.64846396   -1.40285897
 C         -2.63007593   -3.07717800   -0.07437100
 H         -3.21364093   -1.55923104   -1.48665404
 H         -4.26398993   -3.00208306   -1.49820805
 H         -2.63578796   -3.05138493   -2.22139692
