55
wb97x-d4 ma-def2-tzvp(-f) cpcm(dmso) E: -1285.243566359314, G: -1284.82150481
 C         -1.99732494   -2.47550988    0.56330001
 C         -0.50429499   -2.09944510    0.58096898
 O          0.08085000   -2.37917089    1.83612299
 C         -0.29242399   -0.64960802    0.14976899
 C         -1.01902497   -0.38242501   -1.16567802
 C         -2.50461888   -0.71348500   -0.97239298
 C         -3.35366392   -0.44434500   -2.21859193
 O         -4.26844120    0.63112301   -2.04124403
 O         -2.60071707   -2.11167312   -0.66130799
 O         -0.77265000    0.91368401   -1.65381801
 O         -2.62310100   -1.88448405    1.66509604
 H         -2.91462708   -0.12975501   -0.14208600
 H         -2.09983492   -3.56551600    0.61424100
 H         -0.62418503   -1.09201705   -1.90216696
 C         -3.93193412   -2.39816499    1.90437496
 H         -0.36128500   -1.81364298    2.48336196
 H         -2.70622206   -0.26024801   -3.08319497
 H         -3.95077300   -1.33466804   -2.42331409
 H         -1.45877600    1.55691397   -1.32948601
 H         -3.77284193    1.40564406   -1.71566200
 H         -4.28584623   -1.94393098    2.82931805
 H         -3.90066290   -3.48753309    2.01856303
 H         -4.61121178   -2.13897109    1.08766794
 H         -0.00980400   -2.74354792   -0.14941400
 O         -0.57770401    0.21474600    1.18839800
 H          0.83719099   -0.54955798   -0.08881300
 H         -0.89617997    1.11047304    0.89424402
 C          4.35182285    0.02664600    1.34221697
 C          2.81187892   -0.20894200    1.30765700
 C          4.80797195    0.45627099   -0.05603500
 C          3.96140289    1.65281904   -0.50355500
 C          2.48649812    1.17906594   -0.66910398
 N          2.41696191   -0.16600400   -0.09999000
 H          4.85932493   -0.89262199    1.64092505
 H          2.53207588   -1.18025100    1.71143997
 H          5.86438799    0.72989398   -0.03849500
 H          4.01399517    2.45151997    0.23881200
 H          2.18729901    1.11692405   -1.71372104
 H          4.57971287    0.79858601    2.07887602
 H          2.26414704    0.57382798    1.83062005
 C          4.58377981   -0.70670402   -1.02989495
 H          4.31738710    2.04742289   -1.45661402
 H          1.78614604    1.81562197   -0.12937400
 C          3.09929490   -1.16887105   -0.91729498
 H          5.23825312   -1.54589903   -0.78938198
 H          4.79509783   -0.39022401   -2.05313611
 H          3.00498009   -2.13116693   -0.41551101
 H          2.60874009   -1.21245003   -1.88906705
 O         -2.64503503    2.63517404   -0.97720897
 O         -1.62723196    2.62817788    1.00752401
 C         -3.47788811    4.11250591    0.69472802
 C         -2.50613689    3.04928088    0.21616600
 H         -3.18728709    4.50759888    1.66738200
 H         -4.47327614    3.66608691    0.77064699
 H         -3.53419590    4.92082310   -0.03686700
