55
wb97x-d4 ma-def2-tzvp(-f) cpcm(dmso) E: -1285.241132647263, G: -1284.8214873400002
 C         -2.08730197   -2.13272095    1.00503504
 C         -0.57795399   -1.83159804    0.98814100
 O         -0.02590900   -1.89499700    2.28656101
 C         -0.29749200   -0.49383801    0.30530500
 C         -0.97624302   -0.45446900   -1.06613398
 C         -2.47761607   -0.71457601   -0.87983000
 C         -3.25994611   -0.68964100   -2.17378592
 O         -2.69035697   -1.60694504   -3.10674906
 O         -2.64128900   -2.00799990   -0.28624001
 O         -0.69222301    0.71766698   -1.79822195
 O         -2.70184207   -1.29206395    1.93861401
 H         -2.91011691    0.04848100   -0.22345200
 H         -2.24894190   -3.18122792    1.28105998
 H         -0.56983203   -1.28808999   -1.64458704
 C         -4.05341291   -1.65413404    2.21136403
 H         -0.43497601   -1.18399596    2.79809403
 H         -4.29930592   -0.95769602   -1.95396101
 H         -3.23787403    0.33059400   -2.56912708
 H         -1.03928196    1.50102401   -1.31326604
 H         -3.21184611   -1.56553197   -3.91561198
 H         -4.40131521   -0.99732900    3.00803900
 H         -4.11210108   -2.69725609    2.54209900
 H         -4.68238211   -1.51873100    1.32723701
 H         -0.10387200   -2.62107801    0.40102300
 O         -0.55936497    0.55339801    1.16824198
 H          0.83995497   -0.47678301    0.08178700
 H         -0.87377101    1.37864304    0.69508201
 C          4.60358095   -0.12082200    0.81363600
 C          3.13149190   -0.61367202    0.96214700
 C          4.72776794    0.66233999   -0.49843299
 C          3.81731510    1.89348805   -0.43280700
 C          2.36060500    1.42156196   -0.13809100
 N          2.38445807   -0.03988600   -0.15646100
 H          5.27341986   -0.98236799    0.81233698
 H          3.05221391   -1.69863296    0.89974302
 H          5.76296186    0.97340298   -0.64979100
 H          4.14358091    2.57140303    0.35768700
 H          1.65680301    1.75843799   -0.89729398
 H          4.86486483    0.51488400    1.66177404
 H          2.67428398   -0.26752999    1.88837802
 C          4.27674913   -0.23414899   -1.65709400
 H          3.84192395    2.43523407   -1.38031900
 H          2.01721692    1.73986804    0.84559399
 C          2.77284694   -0.59191102   -1.45428097
 H          4.87207222   -1.14880300   -1.68295097
 H          4.39831018    0.28083301   -2.61171508
 H          2.60675097   -1.66863799   -1.43010795
 H          2.13665795   -0.14018300   -2.21432805
 O         -1.46237302    2.64132309   -0.10593800
 O         -3.36123300    3.56153703   -0.82786500
 C         -3.28499699    2.75034308    1.42763102
 C         -2.67990994    3.01612592    0.05560900
 H         -3.33015108    1.67063403    1.59764802
 H         -4.28698111    3.17072511    1.50542796
 H         -2.64361811    3.17534900    2.20314789
