55
wb97x-d4 ma-def2-tzvp(-f) cpcm(dmso) E: -1285.243788998232, G: -1284.8214642100002
 C         -2.08387089   -2.36198092   -0.57282102
 C         -0.56649101   -2.11934590   -0.48160899
 O          0.04970800   -3.02793598    0.40606999
 C         -0.27253699   -0.66479200   -0.12598599
 C         -1.02571499    0.28407699   -1.05945206
 C         -2.52273107   -0.04232900   -0.95956600
 C         -3.42559910    0.81034499   -1.84590602
 O         -3.60794806    2.12873507   -1.36020899
 O         -2.69899797   -1.39595902   -1.39880395
 O         -0.69487900    1.63194394   -0.82331198
 O         -2.61042404   -2.37862706    0.72090602
 H         -2.86003304    0.05080300    0.07717500
 H         -2.27327299   -3.32012892   -1.06984496
 H         -0.71139199    0.05146100   -2.08237195
 C         -3.95382404   -2.85453606    0.77470303
 H         -0.34766299   -2.88616395    1.27564895
 H         -3.00072193    0.88053602   -2.85236502
 H         -4.38680983    0.28452700   -1.92175698
 H         -1.10892403    1.91042602    0.02806700
 H         -3.66691303    2.10873795   -0.37721300
 H         -4.63338280   -2.16775489    0.26271600
 H         -4.22413921   -2.91625404    1.82806695
 H         -4.02758217   -3.84737706    0.31810600
 H         -0.15501501   -2.31382489   -1.47434103
 O         -0.43997899   -0.44370800    1.23051798
 H          0.85695899   -0.49145401   -0.36300799
 H         -0.77770501    0.46241501    1.41870999
 C          4.00889111    1.12342596   -1.83655798
 C          2.58611012    0.49051601   -1.81616294
 C          4.71599197    0.77949899   -0.52037799
 C          4.67368603   -0.73971999   -0.32100499
 C          3.18977094   -1.17036700   -0.13032401
 N          2.36691809   -0.00116300   -0.45334801
 H          3.93048906    2.20605707   -1.95258498
 H          1.80991995    1.21891904   -2.04649401
 H          5.75083590    1.12476695   -0.55034798
 H          5.09827709   -1.24742603   -1.18926895
 H          2.97213292   -1.45622098    0.89851600
 H          4.56429195    0.72794199   -2.68838191
 H          2.50475407   -0.35852599   -2.49410200
 C          3.97007394    1.45176101    0.63795400
 H          5.24738216   -1.03212500    0.56005698
 H          2.90930605   -1.98252702   -0.80026901
 C          2.46670103    1.05846202    0.55079800
 H          4.05778599    2.53786111    0.57821798
 H          4.38612509    1.12702894    1.59371996
 H          1.84021699    1.88551199    0.22093000
 H          2.08700800    0.67158997    1.49649704
 O         -3.77757192    2.15990305    1.37142396
 O         -1.56764102    1.99038601    1.66923702
 C         -2.94479394    2.00411391    3.60809588
 C         -2.76578808    2.05122900    2.10033298
 H         -2.36869097    1.17455494    4.02313519
 H         -3.99477410    1.90478599    3.88079309
 H         -2.54752398    2.92792606    4.03739786
