55
wb97x-d4 ma-def2-tzvp(-f) cpcm(dmso) E: -1285.243237575782, G: -1284.82140009
 C         -2.00260210   -2.29877710   -0.26527399
 C         -0.50671101   -1.96236801   -0.13553900
 O          0.09310500   -2.65108991    0.94161201
 C         -0.28588000   -0.45382601   -0.04980500
 C         -1.02640903    0.26815999   -1.17743099
 C         -2.50958395   -0.11991300   -1.10165596
 C         -3.39268303    0.50821900   -2.17564297
 O         -3.67050099    1.87857997   -1.94809902
 O         -2.59662700   -1.53773201   -1.29580605
 O         -0.78054899    1.65436697   -1.17238498
 O         -2.61756301   -2.10000896    0.97317803
 H         -2.91609693    0.13690101   -0.11901000
 H         -2.11917496   -3.34182692   -0.58116400
 H         -0.63669801   -0.12427800   -2.12258291
 C         -3.94810605   -2.61230302    1.02620494
 H         -0.32677001   -2.32898092    1.75053406
 H         -2.90683293    0.42391300   -3.15297103
 H         -4.32004309   -0.07879300   -2.20914888
 H         -1.26221097    2.05513692   -0.41082299
 H         -3.78915906    2.03428197   -0.98340303
 H         -4.28533697   -2.51001000    2.05706406
 H         -3.96360397   -3.66941810    0.73799598
 H         -4.61215401   -2.04718709    0.36646599
 H         -0.02734400   -2.32185197   -1.04885495
 O         -0.52825201    0.00613400    1.23530197
 H          0.84488600   -0.28920299   -0.26265299
 H         -0.91650301    0.91168398    1.23737597
 C          4.13089991    1.58446395   -0.90873098
 C          2.59956002    1.36031604   -0.73815602
 C          4.86733294    0.37285399   -0.32788301
 C          4.53055096   -0.86341900   -1.16931498
 C          2.98085403   -0.99181300   -1.26053798
 N          2.42647099   -0.02936700   -0.30769300
 H          4.41891193    2.49893594   -0.38772899
 H          2.17011189    2.00232005    0.02955000
 H          5.94432306    0.54907602   -0.33615500
 H          4.94105577   -0.77051002   -2.17595196
 H          2.63685703   -1.98813999   -0.98451602
 H          4.37150621    1.70327997   -1.96692204
 H          2.05652905    1.49953794   -1.67106605
 C          4.38249207    0.14597000    1.10889494
 H          4.95010805   -1.76046205   -0.71008098
 H          2.60398293   -0.73632699   -2.25011802
 C          2.87911105   -0.25999200    1.06367099
 H          4.50406218    1.05728900    1.69745195
 H          4.95145988   -0.65083897    1.59052300
 H          2.26818299    0.34566799    1.73239398
 H          2.73069692   -1.31459701    1.29091203
 O         -4.01236677    2.38172603    0.71984202
 O         -1.82321000    2.39008689    1.17005205
 C         -3.32599998    2.40600610    3.01228094
 C         -3.04893088    2.38941789    1.51895201
 H         -2.96561694    3.34920597    3.43105698
 H         -2.76958489    1.59889305    3.49438190
 H         -4.38994312    2.30061007    3.22140694
