55
wb97x-d4 ma-def2-tzvp(-f) cpcm(dmso) E: -1285.242697923315, G: -1284.82137906
 C         -2.07032800   -2.84510207   -0.31813300
 C         -0.62081099   -2.33238411   -0.25832301
 O          0.13367200   -3.05284309    0.69284201
 C         -0.57977301   -0.82517201   -0.01324800
 C         -1.45805097   -0.11337200   -1.04554403
 C         -2.88342905   -0.67326200   -0.94302303
 C         -3.83510590   -0.07378100   -1.96099699
 O         -3.39218211   -0.26114801   -3.30235410
 O         -2.84331608   -2.08023596   -1.21722698
 O         -1.40672195    1.29376602   -0.97506797
 O         -2.60043907   -2.84696603    0.97476101
 H         -3.28686500   -0.49416801    0.06029200
 H         -2.08164191   -3.86078310   -0.73004401
 H         -1.07133996   -0.38761100   -2.03077507
 C         -3.82993793   -3.56277490    1.07338703
 H         -0.26837099   -2.88268590    1.55538094
 H         -4.82627201   -0.51871902   -1.81747699
 H         -3.90834689    1.00119996   -1.79712701
 H         -1.60086095    1.60096395   -0.05950100
 H         -3.31856799   -1.21160400   -3.45205808
 H         -4.61999607   -3.06654596    0.50301600
 H         -4.10101604   -3.58172703    2.12850904
 H         -3.70684791   -4.58836317    0.70755601
 H         -0.17408000   -2.53031301   -1.23500597
 O         -0.82556999   -0.55746901    1.31930196
 H          0.50857300   -0.48703200   -0.24426199
 H         -1.10251606    0.39183301    1.48172295
 C          3.20089698    2.14249206    0.47223601
 C          1.81078899    1.43971896    0.47354001
 C          4.25200987    1.13844395   -0.01291400
 C          3.95082808    0.76248401   -1.46804500
 C          2.47483301    0.27090001   -1.56134200
 N          1.99337304    0.14657401   -0.18538100
 H          3.43077397    2.48630095    1.48192406
 H          1.44743896    1.25360000    1.48284805
 H          5.24938297    1.57568502    0.06018400
 H          4.08266878    1.62363505   -2.12500405
 H          2.39709091   -0.70302403   -2.04327989
 H          3.17311406    3.01209211   -0.18714000
 H          1.06488502    2.00313306   -0.08419700
 C          4.16576004   -0.12163600    0.85535598
 H          4.62548685   -0.02829500   -1.80139101
 H          1.83458996    0.98641098   -2.07573700
 C          2.78026795   -0.79141098    0.61525500
 H          4.27486086    0.13707700    1.91025102
 H          4.95445299   -0.82852203    0.59304899
 H          2.24568009   -0.97648102    1.54617298
 H          2.86471891   -1.72094500    0.05459100
 O         -0.23977500    2.51785588    3.21909189
 O         -1.66460204    1.88755405    1.62073696
 C         -0.91589600    4.14441109    1.59065402
 C         -0.92634302    2.75595403    2.21132302
 H         -0.48454100    4.07857990    0.58767599
 H         -0.33319101    4.84335613    2.18978906
 H         -1.93941295    4.51035690    1.48315203
