55
wb97x-d4 ma-def2-tzvp(-f) cpcm(dmso) E: -1285.242778675615, G: -1284.8213244
 C         -2.14305592   -2.35065603    0.69414198
 C         -0.61863101   -2.13617301    0.66125602
 O         -0.01438700   -2.56712389    1.86258101
 C         -0.28156999   -0.68034798    0.34213999
 C         -1.01576197   -0.24003500   -0.92504698
 C         -2.52101588   -0.45736900   -0.72910601
 C         -3.34226704   -0.10333600   -1.95420396
 O         -2.95653200   -0.84584898   -3.10734892
 O         -2.74893594   -1.85097802   -0.47961599
 O         -0.68631899    1.06837797   -1.33876097
 O         -2.65661597   -1.76149905    1.85174894
 H         -2.88493896    0.13849001    0.11538800
 H         -2.36259604   -3.42463112    0.68807101
 H         -0.69163603   -0.90915501   -1.72677803
 C         -4.01462984   -2.11564994    2.10433412
 H         -0.33190301   -1.97652996    2.55925989
 H         -4.40088511   -0.26999599   -1.72513497
 H         -3.19951296    0.95118201   -2.19106793
 H         -0.96362299    1.70589399   -0.64329398
 H         -3.07525492   -1.78114200   -2.90138888
 H         -4.27313805   -1.70179200    3.07847190
 H         -4.12934113   -3.20531297    2.12593508
 H         -4.67805576   -1.69678700    1.34271300
 H         -0.22608601   -2.76674604   -0.13914301
 O         -0.43335700    0.10489000    1.46762300
 H          0.84357798   -0.66167098    0.05965600
 H         -0.77068800    1.03114796    1.26569104
 C          4.68621206   -0.57551003    0.43260601
 C          3.22286701   -1.09834599    0.56422502
 C          4.68925095    0.64124298   -0.49887899
 C          3.83291197    1.74812806    0.12441000
 C          2.39814401    1.18820596    0.37279701
 N          2.37491608   -0.16507199   -0.17588501
 H          5.31827116   -1.36870694    0.03023800
 H          3.09899592   -2.08652091    0.12330400
 H          5.71095085    0.99810898   -0.64162898
 H          4.26155281    2.07957292    1.07148004
 H          1.63577998    1.77369595   -0.13761801
 H          5.06774378   -0.30064100    1.41757703
 H          2.88578796   -1.11633301    1.59986997
 C          4.08268595    0.24001899   -1.84791303
 H          3.77735806    2.60799789   -0.54559797
 H          2.15944791    1.12583995    1.43335903
 C          2.60460401   -0.20191400   -1.61977005
 H          4.64857388   -0.58271301   -2.28832507
 H          4.10458088    1.08085704   -2.54319501
 H          2.42216492   -1.21801400   -1.96729696
 H          1.89443099    0.47728801   -2.08817196
 O         -1.30164194    2.47539306    0.85425502
 O         -3.11346292    2.19036794    2.12927699
 C         -3.22185612    3.77499700    0.33255199
 C         -2.51499295    2.73649096    1.18821204
 H         -3.30840993    3.39119792   -0.68799001
 H         -2.62460303    4.68845320    0.28959599
 H         -4.21510410    3.99871111    0.72039098
