55
wb97x-d4 ma-def2-tzvp(-f) cpcm(dmso) E: -1285.242933081374, G: -1284.8213236200002
 C         -2.23302603   -1.69503999    0.09479000
 C         -0.74533403   -1.32148504    0.04323300
 O         -0.06425000   -1.62050402    1.23757803
 C         -0.55583602    0.11919800   -0.43919599
 C         -1.29667497    0.33326700   -1.75528204
 C         -2.76815891   -0.05729800   -1.55987203
 C         -3.60597110    0.10235500   -2.81628108
 O         -3.10180497   -0.61858302   -3.93880510
 O         -2.84587312   -1.42619097   -1.15175998
 O         -1.16961706    1.67214298   -2.20154309
 O         -2.83668494   -1.01347697    1.15155303
 H         -3.20373511    0.58610499   -0.78603101
 H         -2.33563805   -2.77770901    0.23236901
 H         -0.85621101   -0.30603001   -2.52375889
 C         -4.13863420   -1.49752605    1.46618295
 H         -0.34226501   -0.99204499    1.94469094
 H         -4.60443401   -0.29078999   -2.61313200
 H         -3.69489098    1.16699696   -3.04775095
 H         -1.33591294    2.24232793   -1.43806398
 H         -2.40549207   -0.09461900   -4.34983301
 H         -4.47428799   -0.94939899    2.34612989
 H         -4.10473108   -2.56926990    1.69305098
 H         -4.83507490   -1.32415199    0.64078599
 H         -0.30894801   -1.95629799   -0.73411399
 O         -0.88132399    1.14463997    0.42710701
 H          0.57678401    0.19882900   -0.67205900
 H         -0.77156699    0.89924401    1.39681900
 C          3.87362695    1.60875797    0.64691001
 C          2.37546396    1.18198001    0.61640400
 C          4.61728001    0.84263498   -0.45358899
 C          4.09221601    1.30606306   -1.81716800
 C          2.53964806    1.17760396   -1.81552398
 N          2.18690395    0.42002699   -0.61499500
 H          4.28792191    1.37847197    1.62969303
 H          2.11469293    0.53421497    1.45238400
 H          5.69013691    1.02895606   -0.38077900
 H          4.36359119    2.34597802   -2.00523400
 H          2.17216992    0.63493901   -2.68575096
 H          3.95762992    2.68471909    0.48287901
 H          1.70337105    2.03942990    0.59880400
 C          4.32978487   -0.65444601   -0.29290599
 H          4.51460505    0.69258898   -2.61534810
 H          2.04684901    2.14715195   -1.75612199
 C          2.81635904   -0.90068698   -0.56981701
 H          4.57846785   -0.98067802    0.71885502
 H          4.92137623   -1.24231195   -0.99641001
 H          2.34103608   -1.47967994    0.22013400
 H          2.64952588   -1.38345098   -1.53199601
 O         -0.63326502    0.39793000    2.89972401
 O         -2.52182889    1.43578196    3.48660588
 C         -2.03929305   -0.68975502    4.48162413
 C         -1.73185396    0.48047701    3.56128407
 H         -1.20345294   -0.84992599    5.16696215
 H         -2.15013790   -1.59335005    3.87708807
 H         -2.95323491   -0.51811099    5.04948187
