55
wb97x-d4 ma-def2-tzvp(-f) cpcm(dmso) E: -1285.243856012647, G: -1284.82130996
 C         -2.08892989    2.33733392   -0.62858897
 C         -0.59012401    2.01911712   -0.77735102
 O         -0.15243100    2.19180107   -2.10878396
 C         -0.27613199    0.62641197   -0.23881000
 C         -0.84684598    0.44615301    1.16810501
 C         -2.35663509    0.71689701    1.11119998
 C         -3.08455300    0.59844899    2.44672108
 O         -3.25237608   -0.73914200    2.88137388
 O         -2.53184199    2.07588291    0.68675703
 O         -0.48311001   -0.79667699    1.72206497
 O         -2.79603410    1.60862994   -1.58855498
 H         -2.83371711    0.04676400    0.38983801
 H         -2.25262403    3.41123796   -0.77316600
 H         -0.40261701    1.22202694    1.80057001
 C         -4.15001011    2.03534293   -1.73039305
 H         -0.66036201    1.57612503   -2.65404797
 H         -2.52744508    1.13435400    3.22177410
 H         -4.05588818    1.09608197    2.32582688
 H         -0.99878401   -1.50561595    1.26795805
 H         -3.44428301   -1.31319702    2.10511994
 H         -4.19141102    3.10376191   -1.96973503
 H         -4.71870804    1.84583700   -0.81596297
 H         -4.57788086    1.46023798   -2.55083990
 H         -0.05043800    2.74646091   -0.16724201
 O         -0.61742300   -0.34722599   -1.16396904
 H          0.87778300    0.58031702   -0.10074400
 H         -0.92358702   -1.17705095   -0.73054397
 C          4.66986322    0.67326701   -0.64963400
 C          3.16550207    1.00610697   -0.87105602
 C          4.76246691   -0.60616302    0.19009501
 C          3.90747094   -1.69306195   -0.47224101
 C          2.41359091   -1.26247704   -0.38532299
 N          2.40912509    0.13835500    0.03406000
 H          5.16175699    1.50077605   -0.13472299
 H          2.93382192    2.04269004   -0.62855202
 H          5.80050087   -0.93583500    0.25954500
 H          4.19928598   -1.82142794   -1.51634097
 H          1.86220598   -1.83401406    0.35962701
 H          5.15205908    0.53870201   -1.61912203
 H          2.84063101    0.78910702   -1.88781404
 C          4.20492697   -0.32035601    1.58956206
 H          4.03080893   -2.65007806    0.03717200
 H          1.90567899   -1.33513105   -1.34655404
 C          2.78963494    0.31150800    1.43768001
 H          4.84969091    0.37430400    2.13014102
 H          4.13843298   -1.24479103    2.16655707
 H          2.79078603    1.37941003    1.65393305
 H          2.04673100   -0.18817000    2.05702090
 O         -1.67129195   -2.52263689    0.08009100
 O         -3.79502296   -2.38732791    0.76715899
 C         -3.34869504   -3.43415308   -1.33686495
 C         -2.92101407   -2.73220992   -0.05959600
 H         -2.72990203   -4.31850004   -1.50091898
 H         -3.18138099   -2.75518608   -2.17808104
 H         -4.40125418   -3.71302009   -1.30440104
