55
wb97x-d4 ma-def2-tzvp(-f) cpcm(dmso) E: -1285.24370947819, G: -1284.82128534
 C         -2.10395002    2.34328604   -0.83181900
 C         -0.60585499    2.01273489   -0.96187198
 O         -0.17947701    2.07066393   -2.30623603
 C         -0.29040101    0.67194998   -0.30609399
 C         -0.84314102    0.62396902    1.11904705
 C         -2.35579395    0.87778300    1.04581296
 C         -3.07256389    0.87957799    2.39246893
 O         -3.24125910   -0.41315299    2.94665098
 O         -2.54404402    2.19114089    0.50065601
 O         -0.46822000   -0.55367202    1.79231405
 O         -2.81528807    1.54079497   -1.72825098
 H         -2.83111095    0.13809800    0.39341301
 H         -2.26635098    3.40201902   -1.06341100
 H         -0.40011299    1.46138501    1.66841400
 C         -4.16718721    1.96222699   -1.90359700
 H         -0.71004897    1.42867196   -2.79706693
 H         -2.50770593    1.48185205    3.11133194
 H         -4.04403687    1.36653399    2.23569703
 H         -0.94610000   -1.31879306    1.38859403
 H         -3.38394904   -1.06694901    2.22514892
 H         -4.60020685    1.32315898   -2.67227197
 H         -4.20268011    3.00710297   -2.23126292
 H         -4.73478079    1.85296404   -0.97555399
 H         -0.06176900    2.78906798   -0.41988701
 O         -0.65550202   -0.37588200   -1.13327301
 H          0.86860800    0.62681103   -0.18409400
 H         -0.91227001   -1.17662001   -0.61968601
 C          4.65389299    0.50615603   -0.78171098
 C          3.16402888    0.89604098   -1.00888002
 C          4.70355415   -0.67732501    0.19134800
 C          3.79641795   -1.79195905   -0.34099501
 C          2.32501006   -1.28452897   -0.31220800
 N          2.37904000    0.14860301   -0.02401200
 H          5.20149994    1.35658598   -0.37143999
 H          2.98918104    1.95976198   -0.85166198
 H          5.72787523   -1.04200006    0.28619501
 H          4.07997084   -2.05659890   -1.36131203
 H          1.74086702   -1.75877297    0.47453400
 H          5.10384512    0.23948701   -1.73900998
 H          2.81137204    0.61285698   -1.99973202
 C          4.17880106   -0.21965100    1.55676603
 H          3.87744188   -2.68683100    0.27832699
 H          1.82230902   -1.42223895   -1.26918399
 C          2.78031111    0.43490601    1.35594702
 H          4.85442019    0.50988299    2.00608206
 H          4.09600496   -1.07132101    2.23497391
 H          2.81227899    1.51741505    1.47459102
 H          2.02923393    0.01507200    2.02250504
 O         -1.54735994   -2.48699307    0.31894600
 O         -3.65952706   -2.32540894    1.03500903
 C         -3.19964600   -3.76087403   -0.82150000
 C         -2.78582191   -2.78599310    0.26706499
 H         -2.52813005   -4.62151289   -0.82548302
 H         -3.10158205   -3.26231408   -1.79004502
 H         -4.23008823   -4.08917189   -0.69029200
