55
wb97x-d4 ma-def2-tzvp(-f) cpcm(dmso) E: -1285.241232401215, G: -1284.82127855
 C         -2.14421296    2.39840007   -0.47399399
 C         -0.62413800    2.15759110   -0.51666301
 O         -0.06272800    2.62167501   -1.72668505
 C         -0.29752600    0.68730301   -0.26042101
 C         -0.98627102    0.21515600    1.01970398
 C         -2.49540401    0.45344901    0.87537301
 C         -3.29307294    0.00291400    2.07696009
 O         -2.77347803    0.60828501    3.25962806
 O         -2.70978594    1.86074400    0.70142603
 O         -0.64899898   -1.10712302    1.37720394
 O         -2.71530390    1.87159002   -1.63654900
 H         -2.87938595   -0.08728200    0.00373600
 H         -2.34283495    3.47489405   -0.41414100
 H         -0.62971598    0.85593897    1.82991004
 C         -4.07754278    2.25334191   -1.81251597
 H         -0.43729001    2.07747602   -2.43256402
 H         -4.34029388    0.28708100    1.92548704
 H         -3.23215199   -1.08822203    2.14039803
 H         -0.95911700   -1.71748805    0.67290199
 H         -3.30851197    0.31021100    4.00304317
 H         -4.37925100    1.90353501   -2.79934812
 H         -4.18041706    3.34329510   -1.76192498
 H         -4.71580076    1.79411995   -1.05258596
 H         -0.18620101    2.75280595    0.28727800
 O         -0.51557201   -0.06151900   -1.40147305
 H          0.83437902    0.63985401   -0.02789300
 H         -0.86110401   -0.98575598   -1.21028900
 C          4.65632296    0.86052299   -0.48899299
 C          3.14851499    1.21472299   -0.65431499
 C          4.75796890   -0.55823803    0.08122300
 C          3.92040300   -1.49920595   -0.79240203
 C          2.42008305   -1.11253405   -0.62970603
 N          2.39956307    0.17697100    0.05470900
 H          5.13426304    1.57562697    0.18341900
 H          2.90218902    2.18000603   -0.21358100
 H          5.79916000   -0.88508803    0.09426200
 H          4.21749496   -1.40909803   -1.83903205
 H          1.87496305   -1.82592201   -0.01343500
 H          5.14662504    0.92536300   -1.46162796
 H          2.83381391    1.19958305   -1.69705796
 C          4.18610287   -0.56316501    1.50411701
 H          4.05314398   -2.53834796   -0.48710299
 H          1.91563201   -1.00319397   -1.58921504
 C          2.76333094    0.07294300    1.46754897
 H          4.81783819    0.01564300    2.17958808
 H          4.12498283   -1.58495605    1.88379800
 H          2.75109100    1.07573402    1.89275098
 H          2.02177811   -0.54755300    1.96857703
 O         -1.41951299   -2.43763804   -0.82326001
 O         -3.38424897   -1.98815298   -1.78884494
 C         -3.25724602   -3.83347797   -0.26049200
 C         -2.66780210   -2.66130495   -1.02950501
 H         -2.71637297   -4.74715900   -0.51896203
 H         -4.31697416   -3.96010709   -0.47942099
 H         -3.12137890   -3.66424108    0.81095898
