55
wb97x-d4 ma-def2-tzvp(-f) cpcm(dmso) E: -1285.243334659782, G: -1284.8212769200002
 C         -2.12209201    2.14118195    0.20624600
 C         -0.60561198    1.95740294    0.01243100
 O         -0.13484199    2.68812203   -1.10011399
 C         -0.23669800    0.47676000   -0.07393100
 C         -0.84298903   -0.30429599    1.09228802
 C         -2.35875201   -0.06279400    1.08401406
 C         -3.09944296   -0.82095897    2.17319608
 O         -4.45668697   -1.07078898    1.81921506
 O         -2.59168291    1.33943105    1.26872599
 O         -0.48133799   -1.66759801    1.06581402
 O         -2.76233196    1.86009896   -1.00427496
 H         -2.76760411   -0.36122200    0.11722700
 H         -2.33200908    3.17218494    0.51380002
 H         -0.43769401    0.11888300    2.01710105
 C         -4.14470816    2.21121097   -1.00115299
 H         -0.56618500    2.31649899   -1.88140798
 H         -2.57913589   -1.76107895    2.37237906
 H         -3.10265088   -0.22569899    3.08926296
 H         -0.96575397   -2.10673189    0.32524499
 H         -4.42427111   -1.70560396    1.08212197
 H         -4.70579100    1.58946395   -0.29839799
 H         -4.51512480    2.04253602   -2.01176691
 H         -4.27123308    3.26645589   -0.73388100
 H         -0.12180800    2.37624192    0.89763302
 O         -0.48685601   -0.02320000   -1.34260094
 H          0.91213399    0.42774701    0.08961500
 H         -0.88388801   -0.92743701   -1.32506800
 C          4.67173195    1.11228704   -0.18502600
 C          3.14918709    1.42245805   -0.08371200
 C          4.90832901   -0.31955799    0.30823499
 C          4.22705221   -1.29497695   -0.65956700
 C          2.73997808   -0.86153799   -0.83147800
 N          2.48305106    0.14861500    0.19369400
 H          5.22352314    1.82977903    0.42418000
 H          2.92054796    2.10365891    0.73510301
 H          5.97851610   -0.52766103    0.35704800
 H          4.71683693   -1.28223002   -1.63437903
 H          2.04944897   -1.69021797   -0.67900199
 H          5.00302982    1.21612799   -1.22008002
 H          2.74941206    1.82412803   -1.01361799
 C          4.27678394   -0.47664100    1.69575000
 H          4.27260923   -2.31241608   -0.26644501
 H          2.55424190   -0.40623000   -1.80341005
 C          2.73253894   -0.34148300    1.55144405
 H          4.65574121    0.29115999    2.37302303
 H          4.51072502   -1.45379496    2.12112689
 H          2.31640410    0.37659401    2.25746989
 H          2.22061491   -1.29627097    1.65884697
 O         -1.70843899   -2.43042111   -1.17276001
 O         -3.72738791   -2.86574197   -0.32360700
 C         -3.60582495   -1.92815697   -2.52238297
 C         -2.98394990   -2.46345401   -1.24356794
 H         -4.63918495   -2.25765204   -2.62684989
 H         -3.01998401   -2.22876906   -3.39220691
 H         -3.59049010   -0.83440602   -2.47154808
