55
wb97x-d4 ma-def2-tzvp(-f) cpcm(dmso) E: -1285.243470300728, G: -1284.82120316
 C         -2.05261993    2.49208999    0.30852699
 C         -0.55405301    2.17866111    0.14883600
 O          0.02031100    2.89942789   -0.91948199
 C         -0.33821201    0.67107499   -0.01674600
 C         -1.05322599   -0.09694700    1.08926105
 C         -2.53377509    0.30743301    1.14057100
 C         -3.26186204   -0.33761299    2.31351995
 O         -3.44062209   -1.73613405    2.12351394
 O         -2.61001492    1.72039795    1.35394704
 O         -0.85588598   -1.49333298    1.02860999
 O         -2.68864298    2.27223492   -0.91469502
 H         -3.03615999    0.03341100    0.20796500
 H         -2.18432093    3.53332710    0.62522203
 H         -0.60916501    0.23661301    2.03404593
 C         -4.04481316    2.71307898   -0.93079698
 H         -0.28997999    2.47405910   -1.73148000
 H         -2.70960402   -0.13475101    3.24045110
 H         -4.25491381    0.10793200    2.40142798
 H         -1.13414705   -1.88730097    0.15549999
 H         -2.56465006   -2.08958602    1.90383697
 H         -4.66309690    2.10739493   -0.26255801
 H         -4.40003014    2.60210490   -1.95475996
 H         -4.11035109    3.76512599   -0.63120198
 H         -0.06269600    2.50986910    1.06645894
 O         -0.53913599    0.26307499   -1.31677103
 H          0.80025297    0.50503802    0.18672600
 H         -1.35862005   -0.31589901   -1.47164798
 C          3.96174502   -1.24281597    1.41810501
 C          2.44561195   -0.93467999    1.26601398
 C          4.71293783   -0.55310702    0.27442300
 C          4.58197498    0.96525598    0.44216099
 C          3.07161593    1.32102501    0.57221401
 N          2.32519698    0.10486000    0.23969500
 H          4.11155319   -2.32318211    1.38537002
 H          1.87849498   -1.79920399    0.92743599
 H          5.76528311   -0.84199101    0.28753901
 H          5.10707378    1.30315197    1.33701897
 H          2.77344894    2.10644889   -0.12094300
 H          4.32220888   -0.87740898    2.38164401
 H          2.00784993   -0.55620199    2.18916893
 C          4.07172585   -0.96032602   -1.05756295
 H          5.01073980    1.47995400   -0.41989601
 H          2.80264711    1.61014199    1.58778799
 C          2.62304807   -0.39035299   -1.10393798
 H          4.04637289   -2.04792809   -1.14852905
 H          4.63895082   -0.56039500   -1.89951396
 H          1.88637805   -1.15072203   -1.36060798
 H          2.53306293    0.44723701   -1.79444695
 O         -1.61354005   -2.90767193   -1.05171895
 O         -2.56436992   -1.14174998   -2.02403307
 C         -3.24891305   -3.31544399   -2.74019504
 C         -2.42006207   -2.38925099   -1.86832404
 H         -2.62739396   -3.64218497   -3.57940602
 H         -4.12441492   -2.80218506   -3.13734007
 H         -3.54918408   -4.20205212   -2.18040490
