55
wb97x-d4 ma-def2-tzvp(-f) cpcm(dmso) E: -1285.241840599484, G: -1284.8211452
 C         -2.04499698    2.34036803   -0.19138300
 C         -0.55998302    1.94172001   -0.24838300
 O          0.06057800    2.40910697   -1.42718899
 C         -0.37925601    0.43575799   -0.06738400
 C         -1.12600005   -0.04821900    1.17653406
 C         -2.59683299    0.36368600    1.03952801
 C         -3.42362404   -0.02628600    2.24742103
 O         -4.79060888    0.34345299    2.08641911
 O         -2.65920806    1.79401600    0.95632899
 O         -0.95166302   -1.42230594    1.44233501
 O         -2.66613293    1.94292498   -1.37761402
 H         -3.03370690   -0.07696400    0.13817599
 H         -2.13004994    3.42612290   -0.06708200
 H         -0.71403003    0.49399599    2.03442407
 C         -3.99348211    2.44841909   -1.50819302
 H         -0.35495201    1.94664299   -2.16732407
 H         -3.39838910   -1.10852301    2.37062001
 H         -2.99911594    0.44075799    3.14508891
 H         -1.01432300   -1.95029998    0.61563599
 H         -4.81144905    1.29374194    1.91823804
 H         -4.66180420    1.98819697   -0.77508098
 H         -4.32936478    2.19835401   -2.51396704
 H         -4.00465822    3.53629899   -1.37665105
 H         -0.07089700    2.44416904    0.58889598
 O         -0.67149401   -0.21987100   -1.24688101
 H          0.75139201    0.27831000    0.15946200
 H         -0.72774202   -1.20951104   -1.12194002
 C          4.49299479    1.01934397    0.58971900
 C          2.96632004    1.29636896    0.46298701
 C          4.76807022   -0.40735599    0.10188000
 C          4.16732693   -0.58052200   -1.29778600
 C          2.61743593   -0.46312201   -1.18793404
 N          2.33148909    0.01163800    0.16458400
 H          4.80560112    1.13029802    1.62977695
 H          2.54240799    1.68258297    1.38947296
 H          5.84312391   -0.59311801    0.07337000
 H          4.54946995    0.18825901   -1.97211897
 H          2.12173200   -1.42455006   -1.31696904
 H          5.03914309    1.74820900   -0.01107400
 H          2.73730302    1.97831094   -0.35446101
 C          4.08883286   -1.39549506    1.05725706
 H          4.42299604   -1.55697298   -1.71188200
 H          2.20867395    0.25448999   -1.89794397
 C          2.58678889   -1.00327897    1.18868697
 H          4.55420589   -1.36434305    2.04365396
 H          4.17247677   -2.41332793    0.67142600
 H          2.35820293   -0.56339800    2.15876198
 H          1.92379606   -1.84755003    1.00678897
 O         -0.79965502   -2.81279397   -0.88833702
 O         -1.72400105   -4.64385509   -1.76260400
 C         -3.16962290   -2.82012701   -1.19588399
 C         -1.80750799   -3.49287295   -1.30428696
 H         -3.94835711   -3.43295097   -1.64819205
 H         -3.14247990   -1.84032905   -1.67862403
 H         -3.40497804   -2.65759301   -0.14030100
