55
wb97x-d4 ma-def2-tzvp(-f) cpcm(dmso) E: -1285.242788017656, G: -1284.8211219300001
 C         -2.17380095   -2.79087901   -0.20465200
 C         -0.69784498   -2.37812495   -0.05515300
 O         -0.08424400   -3.04620194    1.02720797
 C         -0.56049401   -0.86027402    0.05417600
 C         -1.29202402   -0.18962801   -1.10879302
 C         -2.76055408   -0.63142699   -1.07561600
 C         -3.59107709   -0.04641600   -2.20103312
 O         -3.07083201   -0.35452399   -3.49104500
 O         -2.80459309   -2.05652308   -1.23331201
 O         -1.12186599    1.20978296   -1.15543699
 O         -2.81280708   -2.63973188    1.02821302
 H         -3.21956992   -0.34287199   -0.12297900
 H         -2.23011208   -3.83581305   -0.53077799
 H         -0.85480100   -0.58470500   -2.02974701
 C         -4.10148621   -3.24952006    1.06913602
 H         -0.52373803   -2.73680806    1.83074701
 H         -4.61957598   -0.41190499   -2.10284710
 H         -3.59790301    1.04007399   -2.11273503
 H         -1.40666902    1.61546504   -0.30520201
 H         -3.07369804   -1.31490397   -3.58351398
 H         -4.79749203   -2.74235106    0.39535001
 H         -4.45981407   -3.16311312    2.09442592
 H         -4.03422308   -4.30761003    0.79210001
 H         -0.18441699   -2.70368195   -0.96213597
 O         -0.89296401   -0.44554901    1.32943106
 H          0.56301600   -0.62734503   -0.11123300
 H         -1.20123601    0.50995398    1.36963105
 C          3.37332010    1.64985704    1.12674105
 C          1.93495703    1.09580398    0.89838302
 C          4.30435991    1.02551305    0.08132300
 C          3.71938610    1.26677895   -1.31525898
 C          2.36160803    0.50767201   -1.42580402
 N          2.05308008    0.01976100   -0.08175800
 H          3.71229506    1.40060604    2.13394189
 H          1.50050199    0.68742800    1.80945694
 H          5.29793882    1.47177398    0.15180600
 H          3.55926895    2.33402801   -1.47949696
 H          2.42567897   -0.35347399   -2.08991909
 H          3.35553193    2.73659897    1.03069901
 H          1.26589096    1.84912598    0.48647800
 C          4.38740015   -0.48420900    0.33007801
 H          4.39853621    0.90074402   -2.08679104
 H          1.54999602    1.15891004   -1.74601400
 C          2.93983412   -1.05920100    0.35504600
 H          4.87285423   -0.69320202    1.28469801
 H          4.96437502   -0.96810299   -0.46022999
 H          2.63288498   -1.35869598    1.35629904
 H          2.81866193   -1.89874196   -0.32853901
 O         -1.75524199    2.01341391    1.31423402
 O         -0.44642100    2.66115689    3.00391197
 C         -1.12061405    4.30244589    1.38863301
 C         -1.08936501    2.89635706    1.96791005
 H         -0.70407999    4.28150511    0.37796000
 H         -0.55179602    4.99880219    2.00391507
 H         -2.15601993    4.64197588    1.30808997
