55
wb97x-d4 ma-def2-tzvp(-f) cpcm(dmso) E: -1285.24362359465, G: -1284.82111297
 C         -2.18770909    2.37912607    0.35256901
 C         -0.67019802    2.20174098    0.15399501
 O         -0.20498700    2.95128393   -0.94797403
 C         -0.30326301    0.72343397    0.05267500
 C         -0.91018897   -0.06454700    1.21583200
 C         -2.42940688    0.15176800    1.18618095
 C         -3.20510602   -0.57141697    2.28236198
 O         -3.33748698   -1.96326101    2.05449104
 O         -2.66472411    1.55111301    1.39094806
 O         -0.49968901   -1.41125405    1.21663499
 O         -2.82553911    2.13285494   -0.86633599
 H         -2.83346105   -0.14727500    0.21403900
 H         -2.39739394    3.40132594    0.68792802
 H         -0.53770101    0.38368699    2.14286089
 C         -4.20412779    2.49951410   -0.86210197
 H         -0.67428601    2.62566304   -1.72777700
 H         -2.70245695   -0.43651599    3.24545693
 H         -4.19008207   -0.09053400    2.34694290
 H         -0.93708301   -1.87503302    0.46226501
 H         -3.43527699   -2.13338399    1.09018004
 H         -4.32050323    3.54955697   -0.57125199
 H         -4.77542114    1.86787796   -0.17650101
 H         -4.57129383    2.35863400   -1.87806904
 H         -0.18569300    2.60819507    1.04420102
 O         -0.56681597    0.23730400   -1.21639800
 H          0.85113800    0.65317601    0.21278200
 H         -0.81002402   -0.71785903   -1.20312595
 C          4.62796593    0.82723999   -0.39337701
 C          3.16416311    1.32999694   -0.22191601
 C          4.72125721   -0.59861797    0.16073500
 C          3.84291792   -1.51874399   -0.69467503
 C          2.40198398   -0.92852300   -0.73875999
 N          2.37115407    0.17917199    0.21589500
 H          5.30208683    1.49652100    0.14341800
 H          3.08121991    2.10162807    0.54261398
 H          5.75671291   -0.94279802    0.13594601
 H          4.23321390   -1.59022605   -1.71108496
 H          1.65016198   -1.65615296   -0.43824801
 H          4.90292597    0.84144598   -1.44978404
 H          2.74465299    1.69828403   -1.15735698
 C          4.19831085   -0.60906702    1.60131502
 H          3.81679511   -2.52302003   -0.26762801
 H          2.15097308   -0.53104901   -1.72109103
 C          2.68555188   -0.24197800    1.58326995
 H          4.74820614    0.11280600    2.20800996
 H          4.32158422   -1.59613895    2.04986191
 H          2.45619988    0.58364803    2.25630403
 H          2.04978991   -1.09273100    1.82101405
 O         -1.45042205   -2.31940198   -1.09527802
 O         -3.62124395   -2.54099798   -0.60684103
 C         -2.95241809   -2.67906094   -2.90093493
 C         -2.67063999   -2.50101209   -1.41930199
 H         -2.41754603   -3.55973196   -3.26481605
 H         -2.56829405   -1.81345499   -3.44629693
 H         -4.01848984   -2.79320598   -3.09380507
