55
wb97x-d4 ma-def2-tzvp(-f) cpcm(dmso) E: -1285.242670998856, G: -1284.82110585
 C         -2.15283895   -2.09689498    0.88583499
 C         -0.63486999   -1.84689295    0.92700303
 O         -0.13339600   -1.92923498    2.24431610
 C         -0.28279600   -0.51663399    0.26003200
 C         -0.90282899   -0.44631001   -1.13820899
 C         -2.41512489   -0.66131198   -1.01348400
 C         -3.11363506   -0.67669702   -2.35799909
 O         -4.51774597   -0.86933702   -2.21322393
 O         -2.64219999   -1.95178294   -0.43154100
 O         -0.55194300    0.71783400   -1.85364401
 O         -2.77685905   -1.23561597    1.79071796
 H         -2.86298203    0.11066900   -0.37937799
 H         -2.36197090   -3.13982797    1.15060794
 H         -0.50003302   -1.29234803   -1.70489705
 C         -4.15488911   -1.54085696    1.99504197
 H         -0.52596599   -1.19675100    2.73841405
 H         -2.97288394    0.28335100   -2.85368896
 H         -2.67653489   -1.46414006   -2.98495102
 H         -0.88885599    1.51132202   -1.37646997
 H         -4.64404821   -1.68216097   -1.70793903
 H         -4.27477884   -2.58435392    2.30766702
 H         -4.73471212   -1.36619401    1.08444500
 H         -4.51073217   -0.87963498    2.78449607
 H         -0.16705699   -2.65186191    0.35635000
 O         -0.54563200    0.53346401    1.11713600
 H          0.86297899   -0.53896999    0.08396700
 H         -0.82382202    1.37199700    0.64195102
 C          4.67451620   -0.46583301    0.69601101
 C          3.18659306   -0.91408700    0.83564597
 C          4.76124382    0.61398298   -0.38801101
 C          3.89199090    1.80542803    0.02643900
 C          2.42204690    1.31302094    0.20444500
 N          2.41602492   -0.11164500   -0.11276900
 H          5.29008484   -1.32655799    0.42968199
 H          3.04840589   -1.96385503    0.58036298
 H          5.79732990    0.93541598   -0.50968599
 H          4.24967718    2.23153496    0.96510500
 H          1.73608100    1.81461298   -0.47606501
 H          5.02858400   -0.07457900    1.65129602
 H          2.79398704   -0.72750300    1.83413899
 C          4.23404980    0.04266700   -1.70859301
 H          3.92325211    2.58462310   -0.73705000
 H          2.06954408    1.43332303    1.22774303
 C          2.74970198   -0.39171800   -1.50925195
 H          4.82921314   -0.81941003   -2.01449203
 H          4.28921080    0.79376900   -2.49838901
 H          2.60740209   -1.45740700   -1.68364096
 H          2.06458998    0.17572400   -2.13658595
 O         -3.14946890    3.66427803   -0.96012199
 O         -1.32126498    2.64595699   -0.18765000
 C         -3.17999911    2.84219909    1.29207397
 C         -2.52363491    3.08112788   -0.06038200
 H         -3.25925398    1.76584101    1.46849895
 H         -4.17164183    3.29108405    1.33456802
 H         -2.55210996    3.25718188    2.08412409
