55
wb97x-d4 ma-def2-tzvp(-f) cpcm(dmso) E: -1285.242629526109, G: -1284.8209952000002
 C         -2.20450997   -2.54642010   -1.04281998
 C         -0.71923798   -2.20780301   -0.82434797
 O         -0.06545700   -3.21015596   -0.07461300
 C         -0.55239201   -0.82419401   -0.19761400
 C         -1.33100605    0.21707900   -1.00689602
 C         -2.79640388   -0.22161300   -1.08448303
 C         -3.63705492    0.71326500   -1.93112803
 O         -4.99440384    0.28434899   -1.99010897
 O         -2.85467196   -1.49923003   -1.73347700
 O         -1.16078305    1.54028106   -0.54847699
 O         -2.79663205   -2.82783890    0.19032601
 H         -3.22676611   -0.29555699   -0.07959000
 H         -2.28784204   -3.41472602   -1.70664096
 H         -0.92959499    0.18947700   -2.02565908
 C         -4.09538603   -3.40448308    0.06527600
 H         -0.45882499   -3.20014191    0.80835098
 H         -3.63480401    1.70879996   -1.48846900
 H         -3.20668411    0.77555901   -2.93862009
 H         -1.38335097    1.60400796    0.40788499
 H         -4.99179602   -0.62422699   -2.31627297
 H         -4.80113316   -2.69138789   -0.36980301
 H         -4.42095804   -3.67110991    1.07022297
 H         -4.05687189   -4.30427790   -0.55883902
 H         -0.25249800   -2.19333196   -1.81149197
 O         -0.81149298   -0.88859302    1.15678000
 H          0.56206602   -0.54060698   -0.33881199
 H         -1.02552295    0.00457500    1.56524098
 C          3.65557599    1.64473999   -1.11776400
 C          2.29385209    0.92888898   -1.37033701
 C          4.34383678    0.97685200    0.07934300
 C          4.41701412   -0.53330898   -0.17432700
 C          2.96565008   -1.10022402   -0.19492900
 N          2.07008505    0.05628100   -0.21792600
 H          3.48437691    2.70358491   -0.91482502
 H          1.46516097    1.63256800   -1.43328905
 H          5.34783411    1.38434398    0.20974100
 H          4.90655422   -0.73395097   -1.12927306
 H          2.73847103   -1.68128598    0.69791800
 H          4.27246523    1.56252301   -2.01390409
 H          2.31702590    0.30608401   -2.26378894
 C          3.50611210    1.22547603    1.33908105
 H          4.98403788   -1.03349900    0.61233997
 H          2.77278399   -1.70301902   -1.08155799
 C          2.04108405    0.78581101    1.04760897
 H          3.51152492    2.28235292    1.61008406
 H          3.90694094    0.65508902    2.17907691
 H          1.37479305    1.63767397    0.92359698
 H          1.64531696    0.12809700    1.82006097
 O         -0.00624100    1.51987004    3.75568008
 O         -1.51259696    1.41673899    2.10857391
 C         -0.87061697    3.57413197    2.87084889
 C         -0.76869702    2.05790305    2.93640709
 H         -0.18985000    4.04774904    3.57749701
 H         -1.89699399    3.87739301    3.09215689
 H         -0.64148599    3.90944099    1.85598600
