55
wb97x-d4 ma-def2-tzvp(-f) cpcm(dmso) E: -1285.241910455567, G: -1284.82094415
 C         -2.08921909    2.64253807   -0.54100698
 C         -0.61831897    2.19787908   -0.62592602
 O         -0.07646900    2.44380903   -1.90628302
 C         -0.45965001    0.73360801   -0.21418101
 C         -1.12716103    0.48725599    1.14091897
 C         -2.59540510    0.91892099    1.04528797
 C         -3.33333206    0.77417499    2.36097193
 O         -4.69582605    1.17378998    2.24119496
 O         -2.63275599    2.31579304    0.72188699
 O         -0.95050901   -0.82604998    1.62674499
 O         -2.80378389    2.07235789   -1.59698701
 H         -3.11489391    0.34593499    0.26972201
 H         -2.14489007    3.73581100   -0.59650397
 H         -0.63898098    1.15129995    1.86173606
 C         -4.10371304    2.63804698   -1.75555003
 H         -0.52822798    1.84694397   -2.51821494
 H         -3.33364105   -0.27160999    2.66684389
 H         -2.82182288    1.36618602    3.13042212
 H         -1.34855902   -1.46374202    0.99449098
 H         -4.69924593    2.08203602    1.91434097
 H         -4.73878622    2.41058111   -0.89476198
 H         -4.53443193    2.19424701   -2.65247393
 H         -4.03573990    3.72472596   -1.87919796
 H         -0.06138700    2.81687498    0.08068300
 O         -0.82254797   -0.09575200   -1.25511205
 H          0.67311299    0.57994503   -0.03036500
 H         -1.25781500   -0.95662498   -0.95814598
 C          4.49833012    0.60445398   -0.53048003
 C          3.01418996    1.06219602   -0.64903200
 C          4.51976013   -0.83540303   -0.00742400
 C          3.62065196   -1.69850504   -0.90022999
 C          2.14833403   -1.21612704   -0.73067498
 N          2.20802093    0.03753400    0.01529800
 H          5.03657198    1.26419199    0.15275200
 H          2.83731008    2.01522112   -0.15175501
 H          5.53990984   -1.22319102   -0.01676300
 H          3.92353702   -1.60564804   -1.94490600
 H          1.54808104   -1.92011297   -0.15527900
 H          4.97175694    0.66857201   -1.51148903
 H          2.68460488    1.12671494   -1.68483400
 C          3.96423697   -0.85228002    1.42155397
 H          3.68504095   -2.75034499   -0.61732501
 H          1.66284800   -1.02680397   -1.68718696
 C          2.57068706   -0.15378501    1.41982901
 H          4.63006687   -0.32059699    2.10307908
 H          3.86159801   -1.88006103    1.77499795
 H          2.60235500    0.82659298    1.89371097
 H          1.80197895   -0.76350403    1.89205694
 O         -1.98097205   -2.25006795   -0.39504600
 O         -0.81948799   -3.48142600   -1.85340905
 C         -1.94975996   -4.60477018   -0.06266200
 C         -1.54148400   -3.36841202   -0.84882301
 H         -1.43857098   -4.58969307    0.90429902
 H         -1.68200600   -5.51717806   -0.59456003
 H         -3.02359509   -4.58654499    0.13377000
