55
wb97x-d4 ma-def2-tzvp(-f) cpcm(dmso) E: -1285.242561683176, G: -1284.8208845600002
 C         -2.03721309   -2.70247698   -0.70954102
 C         -0.60454202   -2.16944695   -0.53808099
 O          0.13758200   -2.95729208    0.36939600
 C         -0.60081398   -0.69215500   -0.14984301
 C         -1.47110200    0.10318900   -1.12123799
 C         -2.88026905   -0.50318098   -1.11734700
 C         -3.84390092    0.22393100   -2.03756499
 O         -3.36608601    0.35912099   -3.37417603
 O         -2.78819394   -1.86272204   -1.55942297
 O         -1.46973300    1.49373102   -0.88227499
 O         -2.61646295   -2.84753299    0.55489701
 H         -3.29590106   -0.46919999   -0.10321700
 H         -2.00903201   -3.67117500   -1.22180295
 H         -1.05089104   -0.04396900   -2.12046790
 C         -3.84770894   -3.56661296    0.52673203
 H         -0.29260600   -2.87271905    1.23092902
 H         -4.76976681   -0.35267201   -2.09235692
 H         -4.07098103    1.20230699   -1.60631895
 H         -1.65418899    1.67371905    0.06590000
 H         -2.73919892    1.09099901   -3.39708805
 H         -4.14884520   -3.71854091    1.56274402
 H         -3.71396899   -4.53799582    0.03733300
 H         -4.62139082   -2.99993396    0.00139900
 H         -0.11738500   -2.26333594   -1.51125205
 O         -0.89033699   -0.54703897    1.19207299
 H          0.49116901   -0.33182901   -0.32331100
 H         -1.16129398    0.38941300    1.41841400
 C          3.61383390    1.84457695   -0.83356899
 C          2.10392690    1.46952200   -0.78652698
 C          4.39640999    0.80103600   -0.02847000
 C          4.30107212   -0.54914099   -0.74868399
 C          2.79829907   -0.86236501   -1.01162398
 N          2.03124309    0.11343900   -0.23641700
 H          3.74649310    2.84173894   -0.41058099
 H          1.53438902    2.12071800   -0.12548900
 H          5.44106483    1.10325801    0.06421200
 H          4.83159399   -0.51986903   -1.70172799
 H          2.52366710   -1.86145103   -0.67565501
 H          3.96180391    1.86380506   -1.86838102
 H          1.65198398    1.46268904   -1.77774000
 C          3.75875807    0.67092597    1.35978496
 H          4.74238205   -1.33792806   -0.13615599
 H          2.53028893   -0.74159199   -2.06082606
 C          2.33231997    0.06620400    1.19305301
 H          3.69354200    1.64987504    1.83916497
 H          4.35056686    0.01575900    2.00107002
 H          1.57830799    0.65026897    1.71902704
 H          2.28817797   -0.97545499    1.50809598
 O         -1.80715597    1.83609998    1.80517006
 O          0.27979600    2.61093497    1.99992204
 C         -1.46746302    3.72123003    3.21345091
 C         -0.93342400    2.65354395    2.27167106
 H         -1.93314195    3.23941588    4.07687521
 H         -2.24265599    4.29996920    2.70538306
 H         -0.67301399    4.38620901    3.55045104
