55
wb97x-d4 ma-def2-tzvp(-f) cpcm(dmso) E: -1285.241831296821, G: -1284.82085312
 C         -2.09770298   -2.72609091   -0.11686400
 C         -0.64889503   -2.23054790    0.03607500
 O         -0.04530600   -2.73165703    1.20998895
 C         -0.57448798   -0.70716000   -0.03650400
 C         -1.29890501   -0.19233300   -1.28188097
 C         -2.74041605   -0.72329003   -1.25694597
 C         -3.52493906   -0.29836401   -2.48362303
 O         -4.89362192   -0.69430399   -2.41886592
 O         -2.69886088   -2.15381193   -1.25694501
 O         -1.22027099    1.20765996   -1.43505001
 O         -2.80064702   -2.45108104    1.05920506
 H         -3.24970603   -0.36443001   -0.35421100
 H         -2.09802699   -3.80526996   -0.31008399
 H         -0.80167598   -0.63130403   -2.15320396
 C         -4.09387922   -3.05184293    1.08766103
 H         -0.50799799   -2.32938099    1.95734799
 H         -3.43763399    0.78404301   -2.60484505
 H         -3.10346198   -0.78390700   -3.36737800
 H         -1.46368206    1.65747404   -0.59745401
 H         -5.32208490   -0.17352700   -1.72944403
 H         -4.75669384   -2.59070206    0.35029599
 H         -4.49472189   -2.89224195    2.08814812
 H         -4.02281094   -4.12710524    0.88789999
 H         -0.08929100   -2.63929391   -0.80808902
 O         -0.96388400   -0.15849499    1.16785097
 H          0.55389702   -0.45785999   -0.19431500
 H         -1.15929699    0.82319599    1.09757805
 C          3.70709991    0.86779499    1.46906602
 C          2.28165603    0.25501600    1.33617496
 C          4.45728016    0.64783800    0.14969601
 C          3.77136397    1.46751797   -0.94865400
 C          2.25392008    1.12515903   -0.94005501
 N          2.09471798   -0.05181700   -0.08126700
 H          4.22711086    0.38475001    2.29800797
 H          2.17965198   -0.67474002    1.89449298
 H          5.49954224    0.95442700    0.25446799
 H          3.89681005    2.53703094   -0.77125698
 H          1.88543797    0.87507099   -1.93433297
 H          3.63297796    1.93509305    1.68806005
 H          1.50806499    0.96091402    1.63450503
 C          4.38010502   -0.83704299   -0.22357400
 H          4.20267010    1.22979796   -1.92324698
 H          1.65027499    1.92344499   -0.51178902
 C          2.89385700   -1.19536304   -0.52363002
 H          4.75213909   -1.45429599    0.59662098
 H          4.98342991   -1.04582202   -1.10851896
 H          2.56679010   -2.07790494    0.02498300
 H          2.71323490   -1.33888602   -1.58829701
 O          0.41085100    3.02894998    1.26757801
 O         -1.70122397    2.34581399    1.00393796
 C         -1.35673702    4.59009600    1.70599794
 C         -0.81674099    3.22771192    1.30056298
 H         -0.55312002    5.26119423    2.00766802
 H         -2.06967902    4.47382402    2.52534008
 H         -1.89647901    5.02605104    0.86111301
