55
wb97x-d4 ma-def2-tzvp(-f) cpcm(dmso) E: -1285.242262438645, G: -1284.82084675
 C         -2.32961607   -1.79669797    0.47805300
 C         -0.81654203   -1.54775000    0.52197897
 O         -0.27984601   -1.66371298    1.81755304
 C         -0.46316001   -0.24331100   -0.19771200
 C         -1.03501594   -0.25520799   -1.61183798
 C         -2.54710889   -0.51148999   -1.52861404
 C         -3.21512008   -0.57267100   -2.88415694
 O         -2.56740594   -1.54780400   -3.70119810
 O         -2.78941607   -1.75264895   -0.85937703
 O         -0.74897301    0.96132702   -2.28161407
 O         -2.97084808   -0.87225199    1.30352294
 H         -3.01056409    0.30816001   -0.96730298
 H         -2.54344606   -2.81794810    0.81484401
 H         -0.56768602   -1.05674100   -2.18634295
 C         -4.34288788   -1.18093002    1.53275096
 H         -0.53603899   -0.88119400    2.35754704
 H         -4.27039003   -0.82925302   -2.74031305
 H         -3.15426493    0.41839400   -3.34406495
 H         -0.93927401    1.67724502   -1.65959299
 H         -3.01329303   -1.55996203   -4.55499601
 H         -4.92558622   -1.09644103    0.61096001
 H         -4.71086502   -0.46018800    2.26271796
 H         -4.44653606   -2.19503593    1.93515599
 H         -0.37030599   -2.34903002   -0.07446100
 O         -0.80867600    0.94891202    0.40952799
 H          0.68729597   -0.26385200   -0.31074601
 H         -0.77625901    0.89852101    1.41365004
 C          3.82720995    1.90518999    0.02818400
 C          2.31949711    1.52809799   -0.08788400
 C          4.65830421    0.73642200   -0.51572901
 C          4.14179420    0.36760101   -1.91245103
 C          2.69631505   -0.19639900   -1.76908600
 N          2.27430511    0.10208900   -0.40016499
 H          4.08289480    2.10055995    1.07199705
 H          1.78058898    1.69620895    0.84389400
 H          5.71131706    1.01784098   -0.56663901
 H          4.13498116    1.24772000   -2.55954504
 H          2.66146994   -1.27767003   -1.90115201
 H          4.00973701    2.81582689   -0.54548001
 H          1.82320702    2.06308508   -0.89639401
 C          4.47880983   -0.47201601    0.41147199
 H          4.77548695   -0.39216799   -2.37363195
 H          1.99933803    0.28001100   -2.45742297
 C          2.95358300   -0.72301900    0.59966302
 H          4.93139601   -0.28560400    1.38741505
 H          4.95004988   -1.35694301   -0.02198500
 H          2.60324597   -0.41204000    1.58298504
 H          2.68416595   -1.76525998    0.43014199
 O         -0.73557299    0.70522702    2.98849511
 O         -2.16887593    0.38556200    4.66785002
 C         -2.66654205    2.09939504    3.06935406
 C         -1.80875301    0.97912902    3.63760304
 H         -2.04107499    2.94389296    2.77281404
 H         -3.41862392    2.42457795    3.78727198
 H         -3.16642690    1.72424304    2.17249608
