55
wb97x-d4 ma-def2-tzvp(-f) cpcm(dmso) E: -1285.241900389684, G: -1284.82083966
 C         -2.00344300    2.56493902    0.60093099
 C         -0.53211701    2.12305999    0.49811900
 O          0.20408000    2.97382498   -0.35488701
 C         -0.41975099    0.65779299    0.08012400
 C         -1.28205299   -0.19801100    1.00895798
 C         -2.72891593    0.30853701    0.93549800
 C         -3.66033697   -0.46565700    1.86030698
 O         -3.90836811   -1.78272104    1.38362706
 O         -2.74976397    1.66357899    1.39349604
 O         -1.17024004   -1.59319103    0.79828298
 O         -2.52269411    2.70270491   -0.68817598
 H         -3.10123396    0.24597800   -0.09291600
 H         -2.06165695    3.52073789    1.13417804
 H         -0.93135101   -0.01215900    2.02974010
 C         -3.78810406    3.36034489   -0.71388400
 H         -0.15989099    2.86294699   -1.24356306
 H         -3.23304796   -0.48783299    2.87132001
 H         -4.62140512    0.05058700    1.90564704
 H         -1.17553604   -1.80650306   -0.16783400
 H         -3.03595304   -2.17611194    1.22774196
 H         -4.55568504    2.75366497   -0.22568899
 H         -4.04906797    3.50218201   -1.76208401
 H         -3.72412801    4.33470297   -0.21647400
 H         -0.10222000    2.22558904    1.49689102
 O         -0.64303601    0.53795999   -1.27625096
 H          0.67992598    0.34925601    0.29444799
 H         -0.76249498   -0.41810501   -1.55894494
 C          3.83502412   -1.84391797    0.50299799
 C          2.34435010   -1.42811799    0.68403602
 C          4.65286684   -0.59228402    0.16778700
 C          4.40773821    0.46162701    1.25333595
 C          2.91101789    0.89126903    1.19661295
 N          2.24818301   -0.02749800    0.27004501
 H          3.91771007   -2.57742596   -0.30125901
 H          1.67483497   -2.01621294    0.05879800
 H          5.71466303   -0.84070700    0.12166900
 H          4.63753891    0.05051100    2.23806000
 H          2.78831100    1.90203905    0.80966002
 H          4.19365120   -2.30438495    1.42483401
 H          2.02161503   -1.49269795    1.72235096
 C          4.18528223   -0.03783500   -1.18240201
 H          5.03741980    1.33822894    1.09337294
 H          2.42376399    0.81022298    2.16762996
 C          2.64274812    0.18179600   -1.12115300
 H          4.41581583   -0.73591900   -1.98855305
 H          4.68376398    0.90945601   -1.39680195
 H          2.10065699   -0.53587103   -1.73552299
 H          2.36038589    1.19326997   -1.40965605
 O         -1.03222597   -1.96787000   -1.81892800
 O         -2.54109907   -1.58808899   -3.42207003
 C         -2.75986099   -3.57720900   -2.09893799
 C         -2.08111811   -2.27615190   -2.49764299
 H         -3.07718492   -3.51107907   -1.05483997
 H         -2.04404998   -4.39946795   -2.17175698
 H         -3.62331700   -3.78377509   -2.73027802
