55
wb97x-d4 ma-def2-tzvp(-f) cpcm(dmso) E: -1285.24230554478, G: -1284.8207334
 C         -2.01733398   -2.20005393    0.60499400
 C         -0.52117503   -1.84315205    0.63988101
 O          0.04902500   -2.12339711    1.90142798
 C         -0.28363299   -0.39031801    0.22384299
 C         -0.99172801   -0.09174500   -1.09966898
 C         -2.47756696   -0.43405801   -0.94127798
 C         -3.26918006   -0.21926300   -2.21516991
 O         -4.64438009   -0.54639101   -2.03391194
 O         -2.58266211   -1.83240998   -0.63646501
 O         -0.75639302    1.21564698   -1.57765198
 O         -2.65679693   -1.59254003    1.68780196
 H         -2.92307496    0.15238699   -0.13166200
 H         -2.13727093   -3.28834200    0.65815300
 H         -0.57587999   -0.77480000   -1.84738004
 C         -3.99135709   -2.05828595    1.87824798
 H         -0.34783801   -1.50388706    2.52876210
 H         -3.22682810    0.83219999   -2.49844193
 H         -2.83156395   -0.81933498   -3.02313900
 H         -1.12601399    1.86144495   -0.93692797
 H         -4.68064594   -1.45588696   -1.71231699
 H         -4.00680780   -3.15040803    1.96782303
 H         -4.63561916   -1.75369596    1.04869998
 H         -4.35351706   -1.61055899    2.80305195
 H         -0.02666100   -2.49377704   -0.08511600
 O         -0.55061197    0.46180099    1.27853298
 H          0.84671801   -0.32069099   -0.00376500
 H         -0.97843999    1.32698095    0.99386102
 C          4.57914591   -1.29102504    0.30133101
 C          3.04513693   -1.48995602    0.11666800
 C          4.92614317    0.15651301   -0.06192700
 C          4.27805996    1.09289396    0.96517700
 C          2.76461101    0.73393202    1.07093000
 N          2.47515607   -0.15286000   -0.05229400
 H          5.10890198   -1.99300098   -0.34443200
 H          2.81168008   -2.06852794   -0.77640003
 H          6.00867510    0.29475200   -0.06428200
 H          4.73944616    0.97565699    1.94691598
 H          2.12711096    1.61412704    0.99190199
 H          4.85827494   -1.49984205    1.33593094
 H          2.58334088   -1.95439005    0.98649001
 C          4.34978914    0.47062400   -1.44709301
 H          4.39202499    2.13337493    0.65486699
 H          2.53222299    0.19734301    1.98972499
 C          2.79472089    0.44420299   -1.34927297
 H          4.68867302   -0.26845300   -2.17562008
 H          4.66725111    1.45751905   -1.78739297
 H          2.34476805   -0.16665600   -2.13125610
 H          2.36228800    1.44323504   -1.37333405
 O         -3.59107900    2.12846303    1.42861402
 O         -1.64316201    2.69115901    0.48750100
 C         -3.54411793    4.00178909   -0.06875600
 C         -2.90248799    2.84934592    0.68770999
 H         -4.58878088    4.12923813    0.21310800
 H         -3.47933197    3.79934597   -1.14157999
 H         -2.99122190    4.92373180    0.12458300
