55
wb97x-d4 ma-def2-tzvp(-f) cpcm(dmso) E: -1285.242355255258, G: -1284.8206900900002
 C         -2.06110001    2.37481999   -0.12854600
 C         -0.55272400    2.07618403   -0.18841200
 O          0.04815100    2.66287494   -1.32381499
 C         -0.28104299    0.57229501   -0.11567200
 C         -1.00960004   -0.03832700    1.08469999
 C         -2.50179601    0.29254401    0.97051501
 C         -3.30025792   -0.21546200    2.15439606
 O         -4.68426085    0.09740700    2.02344489
 O         -2.65090990    1.71888304    0.97491801
 O         -0.74890900   -1.41325700    1.26454699
 O         -2.64723611    2.01498508   -1.34422505
 H         -2.91735601   -0.11819200    0.04423700
 H         -2.21800494    3.44274712    0.06323500
 H         -0.63053000    0.46952799    1.97750294
 C         -4.00144482    2.44709802   -1.45909405
 H         -0.31528500    2.20836711   -2.09599304
 H         -3.22212195   -1.30110800    2.20837903
 H         -2.89182091    0.21353000    3.07813096
 H         -1.05681205   -1.90846002    0.47320801
 H         -4.75000715    1.05291402    1.90278399
 H         -4.64475298    1.91431606   -0.75329500
 H         -4.31833982    2.22534800   -2.47766805
 H         -4.07742882    3.52502704   -1.27642798
 H         -0.10454900    2.54869699    0.68835598
 O         -0.50292099   -0.01165500   -1.34784305
 H          0.84468102    0.47051001    0.11920500
 H         -0.86254698   -0.94887298   -1.28867900
 C          4.17876720   -0.87749797   -1.22058499
 C          2.70862198   -0.35782501   -1.21745896
 C          4.85208511   -0.43530801    0.08402300
 C          4.16972494   -1.14342797    1.25920701
 C          2.63602901   -0.89575303    1.15775597
 N          2.44877601    0.13048100    0.13268800
 H          4.69866323   -0.46503901   -2.08660007
 H          2.56485295    0.47257099   -1.90736794
 H          5.91440678   -0.68439198    0.06027200
 H          4.35965490   -2.21747804    1.23048997
 H          2.21586609   -0.52907801    2.09345603
 H          4.18738222   -1.96604204   -1.30202603
 H          1.99164200   -1.14601004   -1.44440496
 C          4.67008591    1.07854295    0.24548399
 H          4.54715919   -0.75430900    2.20675993
 H          2.09425712   -1.78495395    0.84124398
 C          3.15100908    1.37717295    0.43292499
 H          5.04352617    1.60184896   -0.63685501
 H          5.21495295    1.44513094    1.11680901
 H          2.79632711    2.14604998   -0.25236899
 H          2.91088009    1.66014004    1.45719898
 O         -1.44605899   -2.42514801   -1.11314702
 O         -3.31750011   -1.85316503   -2.19207311
 C         -3.35102296   -3.81256294   -0.80921501
 C         -2.67824697   -2.60043311   -1.43372202
 H         -3.34069705   -3.70450401    0.27895600
 H         -2.78345799   -4.71340322   -1.05435300
 H         -4.37875795   -3.91835403   -1.15498495
