26
wb97x-d4 ma-def2-tzvp(-f) cpcm(dmso) E: -726.364674835918, G: -726.18777739
 C         -1.00696099    0.41079199   -0.13580200
 C         -1.06655502   -1.11406398   -0.12013100
 O         -0.02366700    0.85423797    0.80602700
 C         -2.31434011    1.06912005    0.26545700
 H         -0.74564999    0.75540602   -1.14370298
 C          1.29770005    0.46820500    0.49044600
 C          1.37151599   -1.00597298    0.27636701
 H          1.90306997    0.77674502    1.35139000
 O          1.76987898    1.12129796   -0.67028898
 C          0.29399100   -1.68890798   -0.49740300
 O          2.62997508   -1.51566100    0.21730600
 O          0.34612799   -3.10779905   -0.32513499
 H          0.44182599   -1.53990304   -1.57720304
 O         -2.06779003   -1.52553499   -1.03955901
 H         -1.31948698   -1.44529402    0.89485401
 H         -2.18660903    2.15626502    0.21124500
 O         -2.75241709    0.67772001    1.56226206
 H         -3.09662604    0.77478898   -0.43451899
 H         -2.07011294    0.93843400    2.19284797
 H         -2.06733298   -2.49042106   -1.06210005
 H          0.18811899   -3.30209303    0.60944700
 C          1.93814802    2.52589798   -0.48665899
 H          2.58144593    2.72549701    0.37821800
 H          0.97488099    3.02344608   -0.34248999
 H          2.41342592    2.90844297   -1.38977897
 H          2.56744289   -2.45064712   -0.03109400
