26
wb97x-d4 ma-def2-tzvp(-f) cpcm(dmso) E: -726.364757372126, G: -726.18766832
 C         -1.04045296    0.26388001   -0.01874700
 C         -1.01437902   -1.25913405    0.06360700
 O         -0.03502800    0.79733199    0.84949100
 C         -2.35753608    0.85000497    0.45266199
 H         -0.84625298    0.58265501   -1.04936898
 C          1.28549504    0.48582900    0.45541400
 C          1.43718505   -0.99112201    0.30455601
 H          1.92623198    0.87240100    1.25721705
 O          1.63336396    1.10687399   -0.76448101
 C          0.35614300   -1.77252698   -0.36808601
 O          2.71866488   -1.42737603    0.17825800
 O          0.50422299   -3.17535996   -0.13535900
 H          0.42987201   -1.66638398   -1.46025205
 O         -2.04003096   -1.77121603   -0.77456498
 H         -1.18818498   -1.55599701    1.10726297
 H         -3.16993594    0.47221801   -0.16772400
 O         -2.36814308    2.26914096    0.33634299
 H         -2.53576303    0.54446101    1.49145198
 H         -1.61216199    2.60204196    0.83617198
 H         -1.97695994   -2.73439407   -0.75825202
 H          0.42276201   -3.33024406    0.81633300
 C          1.67905796    2.53012800   -0.66816199
 H          2.08183503    2.89869404   -1.61140203
 H          2.33405089    2.83839512    0.15502200
 H          0.68011099    2.94669890   -0.51100397
 H          2.69583201   -2.37700295   -0.01638700
