26
wb97x-d4 ma-def2-tzvp(-f) cpcm(dmso) E: -726.363504611628, G: -726.18583683
 C         -0.92081201    0.36765301   -0.05305100
 C         -0.87000799   -1.16365600   -0.10458300
 O          0.10323600    0.86765498    0.81368399
 C         -2.23547912    0.89783400    0.49110201
 H         -0.78281403    0.76635599   -1.06747997
 C          1.42926204    0.50989199    0.41668400
 C          1.54899204   -0.97421300    0.28244400
 H          2.06492496    0.88893902    1.22382402
 O          1.76936996    1.08937895   -0.81202900
 C          0.51179898   -1.61507404   -0.58957899
 O          1.83530200   -1.61065197    1.45448804
 O          0.66234499   -3.02579999   -0.50172901
 H          0.63974100   -1.27473104   -1.62583995
 O         -1.89766204   -1.70641506   -0.92367798
 H         -1.04115295   -1.56369901    0.89753401
 H         -2.21042395    1.99295294    0.45937100
 O         -2.50356507    0.43874100    1.81196404
 H         -3.05514002    0.55090600   -0.13876300
 H         -1.78110504    0.74080497    2.37587094
 H         -1.79369199   -1.35778999   -1.81939697
 H         -0.15872701   -3.42745709   -0.81397998
 C          1.76213098    2.51635408   -0.77579999
 H          2.17882800    2.85640001   -1.72331798
 H          2.38252997    2.88137794    0.05055000
 H          0.74607599    2.90324092   -0.66262800
 H          1.61604297   -2.54900002    1.33433497
