26
wb97x-d4 ma-def2-tzvp(-f) cpcm(dmso) E: -726.362667827673, G: -726.1853222999999
 C         -0.87127900    0.51338398    0.00001600
 C         -0.95066702   -1.01133800   -0.08256700
 O          0.19056800    0.89727801    0.87687701
 C         -2.15175605    1.15662599    0.50705600
 H         -0.68501103    0.91060400   -1.00600600
 C          1.47744095    0.46806499    0.42924500
 C          1.49158299   -1.01448798    0.22811800
 H          2.16010499    0.76732200    1.23168802
 O          1.83092594    1.07361495   -0.78518599
 C          0.37206501   -1.56106198   -0.61588502
 O          1.79882300   -1.72207105    1.35264206
 O          0.31336001   -2.98390794   -0.53071499
 H          0.48370901   -1.23754394   -1.65564799
 O         -2.03736091   -1.34808600   -0.93315500
 H         -1.10891497   -1.41953504    0.92401803
 H         -1.97009301    2.22698307    0.62637800
 O         -2.57492089    0.66953498    1.77759600
 H         -2.93617892    1.02082300   -0.24227799
 H         -3.03848600   -0.16492800    1.64501798
 H         -2.05032206   -2.30967808   -1.01640105
 H          0.90236503   -3.35611796   -1.19813704
 C          1.93396902    2.49367595   -0.69111598
 H          2.34297204    2.84218788   -1.63909900
 H          2.60871506    2.77512503    0.12534600
 H          0.95520800    2.95142889   -0.52463102
 H          1.51318002   -2.63789701    1.19682598
