26
wb97x-d4 ma-def2-tzvp(-f) cpcm(dmso) E: -726.360884553908, G: -726.18510051
 C         -1.05447602    0.20042901    0.00798300
 C         -1.07710898   -1.32521796    0.11287600
 O         -0.02275600    0.71833098    0.85552001
 C         -2.34378791    0.83954901    0.48724899
 H         -0.86454803    0.49722701   -1.02999604
 C          1.27492094    0.38733399    0.42196301
 C          1.39795005   -1.08956897    0.22942600
 H          1.94574702    0.74099600    1.21743703
 O          1.61877501    1.03242898   -0.78861803
 C          0.26619801   -1.90046000   -0.31350100
 O          2.62624407   -1.60481501   -0.06047100
 O          0.32837400   -3.25781703    0.13138799
 H          0.29865700   -1.88674295   -1.41541898
 O         -2.07573104   -1.87980294   -0.73843598
 H         -1.26119006   -1.60935497    1.15515101
 H         -3.18095398    0.47819099   -0.11111000
 O         -2.31318998    2.25509501    0.33935401
 H         -2.51429009    0.56282800    1.53567195
 H         -1.54081500    2.57469893    0.82261002
 H         -2.89625311   -1.96242702   -0.24056500
 H          1.09550798   -3.67005491   -0.28281900
 C          1.71798599    2.44980097   -0.65255803
 H          2.39962411    2.71017790    0.16562501
 H          0.73790401    2.89687800   -0.46393901
 H          2.11576104    2.83110809   -1.59289706
 H          3.32145000   -0.98881298    0.20807500
