26
wb97x-d4 ma-def2-tzvp(-f) cpcm(dmso) E: -726.36285540721, G: -726.18492169
 C         -0.85271502    0.49584299    0.14565200
 C         -0.90922499   -1.03170800    0.05438700
 O          0.26042399    0.89156997    0.94703698
 C         -2.08688402    1.08774102    0.81946999
 H         -0.76300400    0.91523802   -0.86368001
 C          1.52338398    0.47819701    0.41538799
 C          1.54274702   -1.00502706    0.23044901
 H          2.25133204    0.79751599    1.16854501
 O          1.78016603    1.07532597   -0.82458299
 C          0.38693601   -1.57018101   -0.55031502
 O          1.90803194   -1.69505501    1.34809995
 O          0.35011300   -2.99199796   -0.45248601
 H          0.43891501   -1.25085998   -1.59572506
 O         -2.04003596   -1.38276505   -0.73863399
 H         -1.01700401   -1.43922400    1.06802499
 H         -2.26246190    0.57389200    1.77337003
 O         -3.24074507    1.03027403   -0.01115700
 H         -1.89395595    2.14203596    1.02722502
 H         -3.31325102    0.11658400   -0.32321700
 H         -2.13532901   -2.34270906   -0.71200502
 H          0.91447502   -3.36215091   -1.14196205
 C          1.86244404    2.49856400   -0.75421101
 H          0.88879102    2.93996596   -0.52577901
 H          2.19796991    2.84154201   -1.73248100
 H          2.58656192    2.80241394    0.01006100
 H          1.62232006   -2.61502504    1.21852803
