26
wb97x-d4 ma-def2-tzvp(-f) cpcm(dmso) E: -726.361151494674, G: -726.18471633
 C         -0.96541899    0.45109001    0.12898700
 C         -1.10137606   -1.06774294    0.16176599
 O          0.12725100    0.82453001    0.97009897
 C         -2.19244099    1.16882896    0.68096602
 H         -0.78585202    0.78822899   -0.89854699
 C          1.38075197    0.37996799    0.49989799
 C          1.36512399   -1.09609902    0.24818900
 H          2.09274793    0.63902098    1.29504895
 O          1.76261902    1.03378701   -0.69335002
 C          0.16103800   -1.72731102   -0.37076801
 O          2.53943205   -1.70818996   -0.07080800
 O          0.05999500   -3.12455392   -0.08611200
 H          0.18404301   -1.58703899   -1.46345496
 O         -2.23636007   -1.43639302   -0.61794102
 H         -1.24481499   -1.37792897    1.20420396
 H         -2.44925809    0.74909103    1.66208398
 O         -3.30057096    1.10514998   -0.20843001
 H         -1.94573498    2.22421694    0.81211501
 H         -3.42474604    0.17136399   -0.43177700
 H         -2.35928297   -2.38972211   -0.53118700
 H          0.69913000   -3.59307599   -0.63497198
 C          2.02964306    2.42325306   -0.50274098
 H          2.42211890    2.80258608   -1.44591498
 H          2.77586198    2.56472206    0.28745300
 H          1.11789703    2.96717906   -0.24101201
 H          3.28820300   -1.18496001    0.24620500
