26
wb97x-d4 ma-def2-tzvp(-f) cpcm(dmso) E: -726.364086381134, G: -726.1867704
 C         -1.04380000    0.21118900    0.06490200
 C         -0.99807698   -1.31762004    0.14026099
 O         -0.00173300    0.77054697    0.87085998
 C         -2.34029603    0.77669197    0.61241901
 H         -0.91637498    0.53306198   -0.97652799
 C          1.29933500    0.47625700    0.40745300
 C          1.46270096   -0.99909103    0.27113399
 H          1.97795105    0.88306999    1.16686702
 O          1.56822097    1.08770704   -0.83713901
 C          0.36712101   -1.82126105   -0.32859299
 O          2.74218893   -1.42620206    0.10132400
 O          0.57738900   -3.20826602   -0.06299900
 H          0.40051699   -1.74564505   -1.42687500
 O         -2.05773711   -1.90907800   -0.59801400
 H         -1.14872003   -1.62202501    1.18109095
 H         -3.18317699    0.37688500    0.04938600
 O         -2.38661909    2.19416904    0.48432899
 H         -2.44540000    0.47870001    1.66337204
 H         -1.60738695    2.54654503    0.93231398
 H         -1.93089402   -1.70536494   -1.53398705
 H          0.50617498   -3.34275699    0.89213997
 C          1.59925497    2.51252794   -0.75885499
 H          2.29942012    2.83898592    0.01886600
 H          0.60616201    2.91755009   -0.54447699
 H          1.93746102    2.87586308   -1.72911704
 H          2.71631598   -2.38243890   -0.06013100
