26
wb97x-d4 ma-def2-tzvp(-f) cpcm(dmso) E: -726.361100449916, G: -726.18426572
 C         -1.28634298    0.49804699    0.07503600
 C         -1.04015696   -0.99677199   -0.13796100
 O         -0.31311899    1.04848194    0.97283000
 C         -2.64107490    0.79332000    0.69582897
 H         -1.23430502    1.00942898   -0.89312398
 C          1.02791703    0.90439397    0.54831100
 C          1.33909500   -0.52978998    0.24984500
 H          1.64404297    1.26754701    1.37918305
 O          1.19547498    1.72350097   -0.59052497
 C          0.37417999   -1.21431303   -0.67552298
 O          1.76263404   -1.24946404    1.32767999
 O          0.60939598   -2.62133694   -0.71363699
 H          0.43371099   -0.78039497   -1.67896402
 O         -2.02079105   -1.46853602   -1.05109096
 H         -1.12815499   -1.51693201    0.82334602
 H         -2.75297594    1.87975299    0.78524798
 O         -2.81260896    0.16540501    1.96222496
 H         -3.42779398    0.41400999    0.04359000
 H         -2.11387110    0.48983201    2.54359102
 H         -1.84802401   -2.40643001   -1.19906199
 H          1.27336597   -2.80377102   -1.38933694
 C          2.56231904    1.86094201   -0.96497899
 H          3.15229201    2.26818705   -0.13526000
 H          2.59101796    2.55417609   -1.80530000
 H          2.98867798    0.89933300   -1.26902997
 H          1.66509295   -2.18861604    1.09708095
