26
wb97x-d4 ma-def2-tzvp(-f) cpcm(dmso) E: -726.360227838638, G: -726.1841157599999
 C         -1.30630803    0.42732799   -0.00969100
 C         -1.12336898   -1.08200598   -0.15019900
 O         -0.36863500    0.94097900    0.94638801
 C         -2.68317509    0.82178402    0.49461401
 H         -1.14957500    0.90504998   -0.98392200
 C          0.97816801    0.78900802    0.58823901
 C          1.26439703   -0.63837099    0.25036600
 H          1.57287097    1.11138701    1.45073295
 O          1.23273897    1.67429101   -0.50288302
 C          0.29806799   -1.38599896   -0.60811102
 O          2.58184409   -0.97244197    0.17956100
 O          0.57853198   -2.78795195   -0.60821497
 H          0.39630201   -1.08549905   -1.66129804
 O         -2.08026290   -1.55363595   -1.08860505
 H         -1.28395402   -1.55021298    0.82933199
 H         -2.73321605    1.91522598    0.54583502
 O         -2.99212289    0.24473000    1.75879300
 H         -3.43842793    0.47104999   -0.20886099
 H         -2.33726001    0.56266099    2.39218807
 H         -1.92915797   -2.49916697   -1.20996904
 H          0.46309799   -3.11590910    0.29475099
 C          2.59399295    2.08141899   -0.60760301
 H          3.23905993    1.25657701   -0.92161798
 H          2.95504403    2.47601390    0.34954000
 H          2.62818503    2.87189007   -1.35775006
 H          2.64316511   -1.87819898   -0.16161700
