26
wb97x-d4 ma-def2-tzvp(-f) cpcm(dmso) E: -726.360929954211, G: -726.18397568
 C         -1.30223000    0.29556400    0.19626600
 C         -0.94965702   -1.18297100    0.03183400
 O         -0.32659799    0.95598298    1.01337397
 C         -2.63215303    0.49096799    0.89903498
 H         -1.33926296    0.77032399   -0.79044998
 C          0.98953801    0.91932499    0.49699199
 C          1.40685499   -0.49371600    0.22374600
 H          1.62581003    1.36314094    1.27129102
 O          1.00609004    1.71099102   -0.67322999
 C          0.44170401   -1.30882502   -0.59026802
 O          1.99294806   -1.12187195    1.28242099
 O          0.79549903   -2.69041896   -0.57583898
 H          0.39250499   -0.92947400   -1.61617899
 O         -1.94166100   -1.78030705   -0.78968799
 H         -0.93107200   -1.66020799    1.02114296
 H         -3.42012191   -0.00417700    0.33217099
 O         -2.98318601    1.86829495    0.98520201
 H         -2.57975698    0.04043200    1.89809501
 H         -2.26419091    2.31928992    1.44475603
 H         -1.68352902   -2.70021510   -0.92820400
 H          1.42164099   -2.85603809   -1.29093897
 C          2.32836699    1.96169496   -1.13880002
 H          2.83021808    1.03196502   -1.42667496
 H          2.92159009    2.46490192   -0.36598000
 H          2.23911309    2.61126995   -2.00906992
 H          1.96153903   -2.07592392    1.09899604
