26
wb97x-d4 ma-def2-tzvp(-f) cpcm(dmso) E: -726.360695157789, G: -726.18387979
 C         -0.92925400    0.29359999    0.15262000
 C         -0.96510899   -1.23403203    0.17935000
 O          0.15404400    0.74681002    0.96557701
 C         -2.17385006    0.92719299    0.76644099
 H         -0.80539697    0.64538997   -0.87945497
 C          1.42326999    0.37885499    0.47792101
 C          1.50748599   -1.09530795    0.23372500
 H          2.13047290    0.68931401    1.25929296
 O          1.74360800    1.05001998   -0.72480798
 C          0.34103200   -1.81430805   -0.35030201
 O          2.72218108   -1.61121905   -0.10155200
 O          0.44630900   -3.20735002   -0.05168300
 H          0.34120700   -1.68721402   -1.44609594
 O         -2.00929809   -1.76451004   -0.62769097
 H         -1.08741903   -1.55532300    1.22267902
 H         -2.30479288    0.55601603    1.78568900
 O         -3.36157608    0.58012301    0.05080900
 H         -2.04497600    2.01272011    0.80299503
 H         -3.38834405    1.09621894   -0.76432502
 H         -2.80045009   -1.22933602   -0.45826399
 H         -0.21888000   -3.66348910   -0.58106500
 C          1.92323804    2.45443010   -0.54638100
 H          2.67273903    2.64982009    0.22935900
 H          0.98290598    2.94050288   -0.27144900
 H          2.27344489    2.85143399   -1.49905705
 H          3.42740798   -1.01035798    0.17566900
