26
wb97x-d4 ma-def2-tzvp(-f) cpcm(dmso) E: -726.36015694539, G: -726.18378588
 C         -1.32360399    0.25716501    0.07978300
 C         -1.07189906   -1.24708903    0.05442600
 O         -0.37335500    0.88834101    0.94858801
 C         -2.69106507    0.60527599    0.63484901
 H         -1.22682798    0.66468799   -0.93301398
 C          0.95934898    0.78865701    0.52656502
 C          1.31194198   -0.64124298    0.27730399
 H          1.57636094    1.20799899    1.32943201
 O          1.11002398    1.59893501   -0.63940603
 C          0.34410700   -1.52125001   -0.44151399
 O          2.64154506   -0.89290500    0.13318300
 O          0.69867402   -2.90070295   -0.31757700
 H          0.37116501   -1.32880199   -1.52404702
 O         -2.03974390   -1.84274101   -0.79654598
 H         -1.16728497   -1.63807595    1.07730103
 H         -3.46169806    0.12790599    0.02995500
 O         -2.93542600    2.00679398    0.58930099
 H         -2.76739001    0.22977500    1.66310406
 H         -2.23318291    2.43887901    1.09106600
 H         -1.83664596   -2.78444099   -0.85950398
 H          0.67256099   -3.13525701    0.62092400
 C          2.42336011    2.12254000   -0.81099600
 H          2.76356196    2.62342310    0.10304100
 H          2.36831594    2.85054898   -1.62085605
 H          3.13817310    1.33908606   -1.07757294
 H          2.74898291   -1.81750500   -0.13778999
