26
wb97x-d4 ma-def2-tzvp(-f) cpcm(dmso) E: -726.36295125891, G: -726.18667899
 C         -0.93894100    0.42013001   -0.14951700
 C         -1.01455700   -1.10535598   -0.14187799
 O          0.00586400    0.85166800    0.83497500
 C         -2.26304412    1.08583403    0.15684500
 H         -0.62225002    0.76007903   -1.14312506
 C          1.33443296    0.45354000    0.57454902
 C          1.40413904   -1.02100503    0.36342201
 H          1.90554702    0.75572598    1.46085405
 O          1.86620700    1.10275698   -0.56387597
 C          0.35630101   -1.69280195   -0.45873401
 O          2.65804696   -1.54544497    0.36517501
 O          0.38635799   -3.11218905   -0.28455299
 H          0.55434197   -1.54562294   -1.53078997
 O         -1.97713697   -1.50491500   -1.10702002
 H         -1.31577802   -1.43671501    0.85910702
 H         -2.10101390    2.16807508    0.21001300
 O         -2.77451110    0.59069401    1.39290595
 H         -2.95651102    0.87437999   -0.66278100
 H         -3.59983301    1.05126905    1.57880294
 H         -1.98406005   -2.46967292   -1.13283706
 H          0.18284900   -3.30396891    0.64161003
 C          2.03503609    2.50606704   -0.37310800
 H          1.06933904    3.01127601   -0.28112000
 H          2.56083798    2.88398409   -1.24980903
 H          2.63249707    2.70247793    0.52481800
 H          2.59584093   -2.48026490    0.11607000
