26
wb97x-d4 ma-def2-tzvp(-f) cpcm(dmso) E: -726.360847135999, G: -726.18357955
 C         -1.23288202    0.42085499   -0.02105200
 C         -0.88417298   -1.06255496   -0.19420400
 O         -0.34208900    1.04083002    0.91770399
 C         -2.63404608    0.64001602    0.52243602
 H         -1.15931499    0.92039502   -0.99385399
 C          1.02428997    0.96842802    0.56062001
 C          1.43300498   -0.44978100    0.30586800
 H          1.57774401    1.37787199    1.41371202
 O          1.19940305    1.77842498   -0.58320397
 C          0.56435299   -1.19527102   -0.65997797
 O          1.83204401   -1.12547696    1.42151296
 O          0.98460501   -2.55268192   -0.68621099
 H          0.64552599   -0.74387902   -1.65706205
 O         -1.70679998   -1.67185402   -1.18477499
 H         -0.99376303   -1.57790697    0.76516199
 H         -2.81244802    1.71760404    0.60831702
 O         -2.84320903   -0.00707000    1.77357197
 H         -3.36455894    0.22626300   -0.17455301
 H         -2.20081401    0.35265300    2.39772010
 H         -2.50011992   -2.01865411   -0.76143301
 H          0.27164999   -3.06845403   -1.08463001
 C          2.57177305    1.97911894   -0.90512300
 H          2.59953594    2.65951705   -1.75594199
 H          3.05774093    1.03573298   -1.17516398
 H          3.10636711    2.42892408   -0.05999700
 H          1.80618095   -2.07305098    1.21055603
