26
wb97x-d4 ma-def2-tzvp(-f) cpcm(dmso) E: -726.359146935511, G: -726.18349884
 C         -1.11276400    0.24745700   -0.22500101
 C         -1.26995802   -1.27029097   -0.10368200
 O         -0.09020700    0.68226099    0.67765301
 C         -2.37533593    1.01118195    0.13079700
 H         -0.83622402    0.50562900   -1.25587201
 C          1.20772099    0.32667801    0.26328900
 C          1.18913805   -1.01821303   -0.38183299
 H          1.82028496    0.34855300    1.17746603
 O          1.75783098    1.23131597   -0.66858900
 C          0.10010500   -1.97814202   -0.08912800
 O          2.36344790   -1.53410494   -0.83230698
 O          0.24766301   -2.60713196    1.20780599
 H          0.09519200   -2.75705099   -0.85884500
 O         -2.12526703   -1.76318097   -1.12854302
 H         -1.77012706   -1.50120699    0.83760703
 H         -2.20234799    2.07925606   -0.04218500
 O         -2.79611111    0.78274101    1.47256100
 H         -3.18802094    0.67990202   -0.51736099
 H         -2.08784795    1.08411205    2.05453491
 H         -1.72695303   -1.56058204   -1.98497200
 H          1.07633197   -3.10187602    1.19895005
 C          2.11093402    2.48741508   -0.08936200
 H          1.22252405    3.01963592    0.26142299
 H          2.59786391    3.07057405   -0.87038898
 H          2.80418706    2.34368801    0.74699700
 H          2.98794103   -0.80861902   -0.98101598
