26
wb97x-d4 ma-def2-tzvp(-f) cpcm(dmso) E: -726.359345007491, G: -726.18349543
 C         -1.09563696    0.30092999   -0.20138800
 C         -1.26483595   -1.21897495   -0.19639900
 O         -0.03234300    0.66896099    0.68174899
 C         -2.33576703    1.04555905    0.25777701
 H         -0.86161798    0.62193900   -1.22314596
 C          1.24289799    0.33088100    0.18629500
 C          1.18418503   -0.98935401   -0.50897902
 H          1.90034997    0.31034800    1.06861901
 O          1.74863803    1.27399302   -0.73139399
 C          0.09953000   -1.93744802   -0.16236500
 O          2.33914995   -1.51433206   -0.99934202
 O          0.25779799   -2.49249291    1.16543806
 H          0.08171200   -2.75282693   -0.89244598
 O         -1.99927998   -1.52991998   -1.37707400
 H         -1.82350898   -1.52583003    0.69207299
 H         -2.16548610    2.12186003    0.14429501
 O         -2.69744897    0.73560899    1.60063505
 H         -3.17805791    0.75687897   -0.37282300
 H         -1.96202803    0.99876899    2.16723204
 H         -2.33985996   -2.42803001   -1.29270399
 H          1.10328805   -2.95710897    1.18836904
 C          2.12949800    2.50542307   -0.11730500
 H          2.86364007    2.32800198    0.67652100
 H          1.25954604    3.01990199    0.29948401
 H          2.57663298    3.12290406   -0.89560801
 H          2.96900702   -0.79564101   -1.15751302
