26
wb97x-d4 ma-def2-tzvp(-f) cpcm(dmso) E: -726.36082227583, G: -726.1834899199999
 C         -1.26539803    0.38224900    0.11178400
 C         -0.92117900   -1.09344304   -0.12473100
 O         -0.31224099    0.99295700    0.99257803
 C         -2.62245798    0.57430297    0.76655799
 H         -1.27181494    0.90671003   -0.85242200
 C          1.02854300    0.93155199    0.54775000
 C          1.42407095   -0.48019299    0.24292800
 H          1.63296700    1.32868803    1.37147903
 O          1.12883902    1.76229095   -0.59000301
 C          0.50081301   -1.20800304   -0.68410897
 O          1.88566995   -1.17527199    1.32200396
 O          0.92493600   -2.56190991   -0.77095598
 H          0.52069497   -0.73020899   -1.67289197
 O         -1.86022902   -1.72017503   -0.98930001
 H         -0.97292697   -1.63552403    0.82236397
 H         -2.81885099    1.64863706    0.85558498
 O         -2.71059895   -0.05893300    2.03874612
 H         -3.39342999    0.13050200    0.13606800
 H         -2.02207088    0.32020700    2.59879708
 H         -1.85565197   -1.25567305   -1.83721697
 H          0.18583301   -3.07911611   -1.11624396
 C          2.47922206    1.98408902   -0.98404002
 H          2.96059895    1.05038297   -1.29298496
 H          3.05369902    2.42893195   -0.16284899
 H          2.45278192    2.67596889   -1.82548201
 H          1.84817898   -2.11901689    1.09658802
