26
wb97x-d4 ma-def2-tzvp(-f) cpcm(dmso) E: -726.360452550685, G: -726.18340186
 C         -1.26821196    0.20946699    0.16752900
 C         -0.82313198   -1.25258195    0.05197300
 O         -0.35483101    0.95418000    0.98514599
 C         -2.62462497    0.34218201    0.83298200
 H         -1.31085706    0.65593600   -0.83365297
 C          0.97809100    0.96866798    0.51116699
 C          1.48137701   -0.42876399    0.31467900
 H          1.56320405    1.47949195    1.28443897
 O          0.98911202    1.70800304   -0.69234300
 C          0.60041201   -1.31134999   -0.51434600
 O          2.04206896   -0.98535103    1.42604494
 O          1.12374699   -2.63154793   -0.47702199
 H          0.56994599   -0.93361801   -1.54547000
 O         -1.71605206   -2.02285004   -0.74281400
 H         -0.82730198   -1.71421194    1.04411602
 H         -3.36305594   -0.23199800    0.27366000
 O         -3.07373190    1.69299698    0.84874701
 H         -2.56483507   -0.05897400    1.85235703
 H         -2.40641594    2.21275997    1.31360996
 H         -1.75906098   -1.63078499   -1.62574196
 H          0.42579901   -3.23238492   -0.76854199
 C          2.30948496    1.97961497   -1.15198004
 H          2.21188807    2.59552693   -2.04548192
 H          2.84006095    1.05480301   -1.40137994
 H          2.87963605    2.52609491   -0.39138201
 H          2.07728100   -1.94530702    1.28370404
