26
wb97x-d4 ma-def2-tzvp(-f) cpcm(dmso) E: -726.360031179933, G: -726.18331225
 C         -0.91725200    0.30387300   -0.00767000
 C         -1.00576997   -1.22406495   -0.03856100
 O          0.09976300    0.69990802    0.91265899
 C         -2.18448400    0.96730500    0.51105797
 H         -0.69106901    0.68039900   -1.01232195
 C          1.39591300    0.32970101    0.50822800
 C          1.46947098   -1.13456297    0.21411400
 H          2.04695797    0.59803200    1.35168195
 O          1.81618404    1.03802502   -0.64104497
 C          0.33144000   -1.84081602   -0.44491401
 O          2.69377398   -1.66724706   -0.05123700
 O          0.35705900   -3.24793506   -0.19701600
 H          0.41988099   -1.75315905   -1.53701699
 O         -1.98308694   -1.67858803   -0.96547401
 H         -1.25025904   -1.56771803    0.97713101
 H         -2.42163396    0.56987101    1.50387394
 O         -3.24694800    0.69467098   -0.40723500
 H         -2.01269507    2.04516411    0.59224498
 H         -4.08090496    0.94220698    0.00787000
 H         -2.75412512   -1.09681106   -0.87150902
 H          0.37624201   -3.37687206    0.76034999
 C          1.99697101    2.43272495   -0.39827001
 H          1.04292500    2.92219496   -0.18325099
 H          2.42803597    2.85761309   -1.30454195
 H          2.68247008    2.59005594    0.44242901
 H          3.39113998   -1.08397305    0.27842200
