26
wb97x-d4 ma-def2-tzvp(-f) cpcm(dmso) E: -726.35951701826, G: -726.18322824
 C         -1.32450795    0.18094800    0.10502600
 C         -1.02482104   -1.32090199    0.09550100
 O         -0.40534300    0.86765897    0.96498197
 C         -2.70733690    0.48782900    0.64709800
 H         -1.23964906    0.57787901   -0.91418701
 C          0.93047398    0.80907899    0.54494399
 C          1.33410203   -0.61517000    0.34805700
 H          1.53158402    1.27728999    1.33269000
 O          1.04511404    1.58739603   -0.64620399
 C          0.41427600   -1.55871499   -0.35846400
 O          2.67303491   -0.83516997    0.24193400
 O          0.84295601   -2.90871096   -0.18176800
 H          0.46396199   -1.39563298   -1.44650304
 O         -1.95410502   -2.03045607   -0.70990801
 H         -1.14415395   -1.71148801    1.11150801
 H         -3.45654607   -0.03315200    0.05186100
 O         -3.00495410    1.87816799    0.56841099
 H         -2.77245498    0.13426600    1.68389499
 H         -2.32052803    2.34643412    1.06235504
 H         -1.83938503   -1.75235999   -1.62799203
 H          0.76227701   -3.12745500    0.75699699
 C          2.35031009    2.11595201   -0.86228800
 H          2.27225089    2.81586695   -1.69451702
 H          3.06647801    1.33013499   -1.11705303
 H          2.70372605    2.64984012    0.02762600
 H          2.80324006   -1.76952696    0.01599900
