26
wb97x-d4 ma-def2-tzvp(-f) cpcm(dmso) E: -726.358124065057, G: -726.18283036
 C         -1.05863094    0.32834199    0.08384700
 C         -1.07154799   -1.19272101    0.04831000
 O         -0.15003300    0.74454600    1.11362600
 C         -2.40113997    0.92571503    0.45863101
 H         -0.74620497    0.72467202   -0.88892800
 C          1.19884396    0.36767200    0.98431802
 C          1.36897898   -0.82172698    0.09504000
 H          1.55639100    0.16538399    2.00132895
 O          2.03314304    1.43897104    0.57005298
 C          0.28625801   -1.68760705   -0.42880601
 O          2.62993503   -1.15311801   -0.28675199
 O          0.40334100   -3.06667995   -0.03120500
 H          0.29326800   -1.64472306   -1.52819204
 O         -2.11370492   -1.63366497   -0.80986601
 H         -1.23886502   -1.55626202    1.07022500
 H         -3.14708400    0.63940197   -0.28178999
 O         -2.35165691    2.34879589    0.47119299
 H         -2.70928311    0.53786498    1.43756902
 H         -1.66645098    2.60694003    1.10007799
 H         -2.08240008   -2.59807897   -0.83331698
 H          1.11236894   -3.46768498   -0.54713601
 C          1.70545697    1.99662495   -0.70478302
 H          1.65441597    1.22228599   -1.47763205
 H          2.50202608    2.69835806   -0.94997400
 H          0.75324100    2.53120208   -0.66205901
 H          3.23933291   -0.45451099   -0.00378000
