26
wb97x-d4 ma-def2-tzvp(-f) cpcm(dmso) E: -726.359631152018, G: -726.1827567199999
 C         -0.98520601    0.21062499    0.02886800
 C         -0.92556900   -1.31795502   -0.10322600
 O          0.08004600    0.70152700    0.84986103
 C         -2.26853800    0.67777801    0.68980300
 H         -0.91179299    0.65767097   -0.97122997
 C          1.37840998    0.39394000    0.34279001
 C          1.51475096   -1.09103405    0.18598901
 H          2.06593800    0.78731900    1.10202801
 O          1.61109698    0.98908699   -0.90072697
 C          0.45040599   -1.73981297   -0.65170997
 O          1.80609095   -1.80935299    1.31317902
 O          0.58860701   -3.14871001   -0.72494698
 H          0.52837300   -1.36375999   -1.67700803
 O         -1.98923802   -1.79498601   -0.91337001
 H         -1.06655395   -1.77328205    0.88251400
 H         -3.12524295    0.31597900    0.12206000
 O         -2.35854006    2.09946704    0.71737099
 H         -2.31980705    0.26653999    1.70570099
 H         -1.57551897    2.42742705    1.17661905
 H         -1.86219096   -1.46200705   -1.81139803
 H          0.73708898   -3.47922897    0.17030101
 C          1.56383002    2.41566396   -0.85619801
 H          0.54772800    2.77087307   -0.66557097
 H          1.89729702    2.76988411   -1.83098996
 H          2.23394394    2.79645205   -0.07733000
 H          2.38459301   -1.30010402    1.89661896
