26
wb97x-d4 ma-def2-tzvp(-f) cpcm(dmso) E: -726.35972110698, G: -726.1825276
 C         -0.95984501    0.37427899   -0.09115300
 C         -0.98000401   -1.14856398   -0.30019200
 O          0.07352000    0.76315302    0.82154602
 C         -2.25570703    0.90253401    0.49953699
 H         -0.80146497    0.86154801   -1.06272697
 C          1.38224602    0.37252101    0.40971300
 C          1.42658699   -1.11072099    0.19832100
 H          2.03172302    0.68689299    1.23606098
 O          1.75947404    0.99286997   -0.78595603
 C          0.40253001   -1.63778806   -0.76428401
 O          1.54734898   -1.89200497    1.31484699
 O          0.45228699   -3.04765511   -0.90726602
 H          0.59530801   -1.21647406   -1.75606406
 O         -2.00579500   -1.51218498   -1.21184099
 H         -1.22752297   -1.63833296    0.64532000
 H         -2.19116092    1.99461305    0.56488502
 O         -2.53980494    0.33967799    1.77652299
 H         -3.08668494    0.64111698   -0.15571600
 H         -1.80022097    0.55493301    2.35780191
 H         -1.79354203   -1.14035296   -2.07786393
 H          0.45907500   -3.43634009   -0.02321800
 C          1.83403695    2.41464710   -0.67824501
 H          0.84242201    2.85212111   -0.53571099
 H          2.26250291    2.77719212   -1.61202204
 H          2.48085999    2.70110798    0.15858200
 H          2.09183097   -1.44879103    1.97912204
