26
wb97x-d4 ma-def2-tzvp(-f) cpcm(dmso) E: -726.360017025453, G: -726.1823492
 C         -1.17858505    0.54313201    0.34797800
 C         -0.98557800   -0.95178503    0.08198000
 O         -0.10709700    1.03910196    1.15530300
 C         -2.45556903    0.83488297    1.13124204
 H         -1.21334195    1.07926095   -0.60710597
 C          1.17665899    0.89037699    0.57827401
 C          1.42714500   -0.53419697    0.18934099
 H          1.88683498    1.20535600    1.35140300
 O          1.23844004    1.75763702   -0.53504300
 C          0.34620199   -1.18533897   -0.62794900
 O          1.98629200   -1.29382896    1.17347205
 O          0.54943901   -2.59340191   -0.71916199
 H          0.29133800   -0.73124301   -1.62256801
 O         -2.08440304   -1.39890599   -0.70648402
 H         -0.96875000   -1.48169398    1.04306102
 H         -2.48309898    0.20241800    2.02788806
 O         -3.62835598    0.65868598    0.34592700
 H         -2.43572903    1.87942004    1.44794798
 H         -3.55748892   -0.21366900   -0.06833900
 H         -2.01403308   -2.35686207   -0.79864502
 H          1.11411095   -2.77493000   -1.47995305
 C          2.55921507    1.88039100   -1.05296302
 H          3.24775505    2.23527193   -0.27696201
 H          2.51523089    2.61002588   -1.86104596
 H          2.92229891    0.92388302   -1.44299495
 H          1.85106599   -2.22398591    0.92539698
