26
wb97x-d4 ma-def2-tzvp(-f) cpcm(dmso) E: -726.36391259098, G: -726.1866348899999
 C         -0.94433802    0.45169199   -0.05058800
 C         -0.97376400   -1.07602799   -0.12073900
 O          0.10952900    0.88774502    0.81377000
 C         -2.22486711    1.04512405    0.50945598
 H         -0.79435402    0.85161299   -1.06100094
 C          1.41201699    0.48107901    0.38842401
 C          1.46376097   -1.00434303    0.22625600
 H          2.07809901    0.82008803    1.18886805
 O          1.75599396    1.06446695   -0.83801401
 C          0.37334901   -1.59413505   -0.62495703
 O          1.76295805   -1.67575204    1.37475598
 O          0.35221800   -3.01691508   -0.51920003
 H          0.49286801   -1.28249896   -1.66736102
 O         -2.02942204   -1.44931602   -0.99486202
 H         -1.14663005   -1.47808099    0.88476098
 H         -2.14067507    2.13760090    0.48709601
 O         -2.50546193    0.59010702    1.82932305
 H         -3.06665397    0.74786502   -0.11611300
 H         -1.76198399    0.84742302    2.38814211
 H         -2.02283406   -2.41222596   -1.05934405
 H          0.97269398   -3.38175511   -1.16173697
 C          1.81643403    2.48930502   -0.78065902
 H          2.47190809    2.81184506    0.03621000
 H          0.82259399    2.92178392   -0.63828802
 H          2.22719789    2.82446289   -1.73254895
 H          1.49936295   -2.60114908    1.23834896
