26
wb97x-d4 ma-def2-tzvp(-f) cpcm(dmso) E: -726.359505193531, G: -726.18212764
 C         -1.19131696    0.48714301    0.17220600
 C         -0.92866802   -1.00443697   -0.06462800
 O         -0.19975200    1.03340399    1.04997802
 C         -2.55295706    0.75803399    0.79232800
 H         -1.15946400    1.01138997   -0.79227799
 C          1.12660301    0.91408002    0.57638299
 C          1.44962001   -0.50902301    0.23420000
 H          1.76675105    1.26197898    1.39557600
 O          1.25235999    1.76339304   -0.54602301
 C          0.46599999   -1.18347895   -0.67262399
 O          1.91523504   -1.24218798    1.28619599
 O          0.82071501   -2.55540395   -0.78236401
 H          0.47700599   -0.69835699   -1.65794897
 O         -1.92913997   -1.59873998   -0.88191402
 H         -0.96111703   -1.53850102    0.88869101
 H         -2.62253499    1.82492495    1.01465297
 O         -2.76712394    0.06790600    2.01976109
 H         -3.32908893    0.50615603    0.06443600
 H         -3.02778196   -0.83810198    1.81986499
 H         -1.94885397   -1.13629401   -1.73084104
 H          0.04707100   -3.03231597   -1.10983300
 C          2.60812807    1.93138695   -0.94733298
 H          3.20871401    2.33337092   -0.12255900
 H          2.60756993    2.64015698   -1.77513003
 H          3.04414201    0.98284698   -1.27795100
 H          1.82788396   -2.17932892    1.04715502
