26
wb97x-d4 ma-def2-tzvp(-f) cpcm(dmso) E: -726.35781172248, G: -726.18196468
 C         -0.96684903    0.29621300   -0.20770399
 C         -1.13324594   -1.21440494   -0.43321699
 O          0.06021900    0.55321997    0.75739199
 C         -2.23454094    0.97590297    0.25965899
 H         -0.68238300    0.74606901   -1.16453195
 C          1.35060096    0.25261199    0.26646900
 C          1.33058298   -1.10526705   -0.35640299
 H          2.00570393    0.29349101    1.15004802
 O          1.81308305    1.18032396   -0.68594903
 C          0.16003400   -1.97142804   -0.07877500
 O          2.50874496   -1.71352100   -0.65706497
 O          0.12558700   -2.43045902    1.29107404
 H          0.21376900   -2.87951398   -0.68247497
 O         -1.46949005   -1.36919105   -1.81016195
 H         -1.93418598   -1.60943198    0.19774300
 H         -2.04562211    2.05013990    0.36312801
 O         -2.64230609    0.41646901    1.50675499
 H         -3.00421405    0.82655102   -0.50630802
 H         -3.49066806    0.80688900    1.74292099
 H         -1.82271802   -2.25812101   -1.93398702
 H          0.04941800   -1.64964294    1.85516202
 C          2.09274292    2.46385193   -0.12653300
 H          1.17586195    2.94774890    0.22108300
 H          2.54126596    3.06289411   -0.91857803
 H          2.79656100    2.37443304    0.70874202
 H          3.20204592   -1.04582798   -0.75848901
