26
wb97x-d4 ma-def2-tzvp(-f) cpcm(dmso) E: -726.358992936876, G: -726.18184366
 C         -1.12550902    0.41216299    0.22253500
 C         -0.82059902   -1.06804001   -0.04707700
 O         -0.12908299    0.98992801    1.07074499
 C         -2.42964697    0.60875100    0.98191899
 H         -1.17088604    0.94753802   -0.73278099
 C          1.18886304    0.91952199    0.56202900
 C          1.55042100   -0.49083900    0.21115699
 H          1.83503795    1.28838301    1.36694598
 O          1.25321901    1.77605200   -0.55874002
 C          0.56829500   -1.19851995   -0.67056102
 O          2.08288407   -1.20372403    1.24487698
 O          0.97095901   -2.55803299   -0.78613502
 H          0.54190397   -0.71662903   -1.65578604
 O         -1.74721503   -1.64650202   -0.95652097
 H         -0.82977903   -1.60899401    0.90958703
 H         -2.38272309    0.05538000    1.92589200
 O         -3.50262094    0.12592100    0.16829300
 H         -2.55963707    1.67334604    1.19948399
 H         -4.29857302    0.08038900    0.70991802
 H         -2.63367796   -1.36500299   -0.67822999
 H          0.23166800   -3.05584097   -1.15703797
 C          2.59112906    1.99452806   -0.99529302
 H          3.05230093    1.06350303   -1.34097600
 H          3.19802499    2.41574192   -0.18497699
 H          2.54249310    2.70504403   -1.82001197
 H          2.02275395   -2.14406490    1.01074600
