26
wb97x-d4 ma-def2-tzvp(-f) cpcm(dmso) E: -726.357610689932, G: -726.18169891
 C         -1.02899206    0.26774600   -0.12463900
 C         -1.21060097   -1.25384295   -0.24605300
 O          0.05021500    0.55706602    0.77227998
 C         -2.26721191    1.00299799    0.35672700
 H         -0.78257400    0.66523701   -1.11716700
 C          1.31034195    0.26128799    0.20512301
 C          1.24468100   -1.07427800   -0.46448499
 H          2.01315188    0.26369199    1.05208302
 O          1.73433304    1.21272504   -0.74019498
 C          0.13838500   -1.98237300   -0.07182000
 O          2.39667296   -1.64014900   -0.91035300
 O          0.29191801   -2.47912502    1.27624404
 H          0.13795701   -2.87010098   -0.70626903
 O         -1.84352005   -1.57408500   -1.47937298
 H         -1.87915301   -1.62778103    0.53184199
 H         -2.03925204    2.06994796    0.40644500
 O         -2.68975902    0.61375397    1.66114604
 H         -3.06780505    0.85444498   -0.37465000
 H         -3.24811602   -0.16730601    1.58510995
 H         -1.29217505   -1.24468601   -2.20113611
 H          0.26351899   -1.71880496    1.87167799
 C          2.10443211    2.46075296   -0.15238500
 H          2.49310803    3.08589292   -0.95555103
 H          2.88196206    2.31244206    0.60519999
 H          1.23978901    2.95014691    0.30375901
 H          3.04869604   -0.94560200   -1.08356094
