26
wb97x-d4 ma-def2-tzvp(-f) cpcm(dmso) E: -726.36018828803, G: -726.1816269
 C         -1.08621097    0.51885498   -0.08119300
 C         -0.81421500   -0.75943398   -0.89959103
 O          0.00776800    0.94085801    0.75272501
 C         -2.31048894    0.44889700    0.81116700
 H         -1.28530097    1.31044602   -0.81289703
 C          1.28147101    0.44648600    0.42905399
 C          1.26371706   -1.03607702    0.37669200
 H          1.94797802    0.81007499    1.21918905
 O          1.74465799    0.95456702   -0.82307601
 C          0.10285800   -1.76970804   -0.18973801
 O          2.45373893   -1.64766097    0.61583197
 O         -0.59121799   -2.56999612    0.77616900
 H          0.44571200   -2.48046803   -0.94988900
 O         -0.27313399   -0.43644899   -2.17888188
 H         -1.77240205   -1.24474800   -1.09497404
 H         -2.46358895    1.42930305    1.27282906
 O         -2.12381911   -0.53894597    1.82933104
 H         -3.18104792    0.20945901    0.19283199
 H         -2.96739197   -0.68977898    2.27069092
 H          0.52091599    0.10379100   -2.02679491
 H         -1.11915302   -1.96192896    1.32686305
 C          1.92470098    2.37296295   -0.82191598
 H          2.37629795    2.63443494   -1.77827299
 H          2.59393406    2.66846991   -0.00694800
 H          0.96791101    2.88992310   -0.71378303
 H          2.35631108   -2.60333204    0.50458199
