26
wb97x-d4 ma-def2-tzvp(-f) cpcm(dmso) E: -726.358353865098, G: -726.18158663
 C         -1.03743196    0.12336100    0.05600900
 C         -1.07237697   -1.41322100   -0.06158700
 O          0.09995100    0.54066801    0.81976599
 C         -2.28806210    0.65233302    0.72937602
 H         -0.96100497    0.54988599   -0.95106101
 C          1.31690001    0.33950201    0.12108000
 C          1.35498202   -1.06889105   -0.38407600
 H          2.10533404    0.52070498    0.86550301
 O          1.48033798    1.23035598   -0.95219803
 C          0.33061701   -2.00622201    0.15657400
 O          2.59221411   -1.50455594   -0.74176300
 O          0.55636698   -2.31014705    1.54879797
 H          0.37968501   -2.96716690   -0.36054000
 O         -1.63012099   -1.80745494   -1.30899596
 H         -1.72835505   -1.83845794    0.70224702
 H         -3.15860891    0.18287800    0.25758201
 O         -2.39059997    2.07164502    0.68932998
 H         -2.27446294    0.36838400    1.78468704
 H         -2.53421497    2.33504295   -0.22747800
 H         -1.09302795   -1.42600203   -2.01599598
 H          0.48615199   -1.47939301    2.03789401
 C          1.68369603    2.57876396   -0.52731901
 H          0.78907597    2.97684693   -0.04100400
 H          1.90180397    3.16243291   -1.42106903
 H          2.53122401    2.63931894    0.16442600
 H          2.55992699   -2.45061493   -0.94018698
