26
wb97x-d4 ma-def2-tzvp(-f) cpcm(dmso) E: -726.36385337963, G: -726.18639445
 C         -0.97498500    0.30252600    0.01900200
 C         -0.90794098   -1.22493899    0.01894400
 O          0.06571600    0.84326202    0.83867598
 C         -2.27783990    0.81794500    0.60075200
 H         -0.86510098    0.66883498   -1.00847697
 C          1.38192904    0.51362997    0.38759500
 C          1.53061402   -0.97193003    0.30606401
 H          2.04479408    0.94170803    1.14707506
 O          1.64437997    1.05207300   -0.87826401
 C          0.46376199   -1.67842102   -0.48465699
 O          1.89362597   -1.55340695    1.48484194
 O          0.53842503   -3.09114599   -0.30290601
 H          0.54128897   -1.41680098   -1.54461503
 O         -1.94949198   -1.71308398   -0.81331801
 H         -1.03550506   -1.58766699    1.04811704
 H         -3.11604905    0.43549600    0.01870300
 O         -2.34855103    2.23945403    0.54839998
 H         -2.37503290    0.46298099    1.63448906
 H         -1.57592201    2.58096004    1.01561701
 H         -1.86185396   -2.67384291   -0.84861302
 H          1.16460204   -3.45090890   -0.94277799
 C          1.58785498    2.47827697   -0.90014201
 H          0.56559598    2.83509707   -0.74970400
 H          1.94273698    2.79095888   -1.88166106
 H          2.23654389    2.89889002   -0.12339600
 H          1.68640399   -2.49994612    1.41025603
