26
wb97x-d4 ma-def2-tzvp(-f) cpcm(dmso) E: -726.358228311718, G: -726.18152317
 C         -1.04758894    0.45173800   -0.16149200
 C         -0.94849497   -0.97109401   -0.75052297
 O          0.02959100    0.80204701    0.71393698
 C         -2.30500388    0.64778697    0.66751301
 H         -1.07913303    1.14928496   -1.00562894
 C          1.32167101    0.43590799    0.28352699
 C          1.36856604   -1.02825201    0.03581800
 H          1.98547995    0.71903801    1.11219001
 O          1.71640205    1.13522100   -0.87869900
 C          0.11951300   -1.82023203   -0.05107800
 O          2.58710098   -1.61063695    0.20414799
 O         -0.35754299   -2.30046201    1.22145104
 H          0.29478401   -2.72056389   -0.65167201
 O         -0.65362102   -0.83547401   -2.13900208
 H         -1.91350496   -1.47480404   -0.62929398
 H         -2.37455297    1.69082606    0.98786700
 O         -2.32248807   -0.21818100    1.80760896
 H         -3.17983603    0.40707701    0.06012700
 H         -1.84193599    0.22608900    2.51621103
 H         -0.72900099   -1.70762897   -2.54488206
 H         -0.93835801   -1.61671901    1.59650195
 C          1.89707601    2.53082609   -0.64623803
 H          2.30294991    2.95570302   -1.56449902
 H          2.60357690    2.69655299    0.17570600
 H          0.94695598    3.01844311   -0.40882799
 H          2.51739407   -2.56249094    0.04923100
