26
wb97x-d4 ma-def2-tzvp(-f) cpcm(dmso) E: -726.357540683794, G: -726.18142213
 C         -0.92803198    0.49759001    0.22143100
 C         -1.06795001   -1.01645696    0.11181600
 O          0.06807400    0.76955402    1.21236396
 C         -2.19790697    1.18251503    0.71675700
 H         -0.64857697    0.92513400   -0.74855202
 C          1.36608696    0.27947500    0.97156101
 C          1.37595403   -0.79751098   -0.06437900
 H          1.74503195   -0.07889600    1.93717301
 O          2.28300309    1.30763102    0.63495702
 C          0.20524301   -1.60537899   -0.47990000
 O          2.58011293   -1.19479203   -0.55151802
 O          0.27658001   -2.98425889   -0.06869600
 H          0.11934000   -1.57251704   -1.57517004
 O         -2.20990705   -1.32959795   -0.68216699
 H         -1.20001197   -1.40947700    1.12680495
 H         -2.56598401    0.66527998    1.61203396
 O         -3.20095396    1.24576294   -0.28835699
 H         -1.95121098    2.21030593    0.99022299
 H         -3.34750199    0.33616900   -0.58541203
 H         -2.41361809   -2.26494002   -0.56363797
 H          0.92874199   -3.42670202   -0.62456399
 C          1.93725300    2.05359197   -0.53481299
 H          1.78092599    1.39502800   -1.39562798
 H          2.77580690    2.71951604   -0.73579103
 H          1.03611004    2.64794493   -0.36368901
 H          3.25339103   -0.55496901   -0.27284700
