26
wb97x-d4 ma-def2-tzvp(-f) cpcm(dmso) E: -726.358413918136, G: -726.18123395
 C         -1.37971103    0.29299301   -0.09977900
 C         -0.86505502   -0.89815402   -0.90233397
 O         -0.33315599    1.22791302    0.24524800
 C         -2.11920190   -0.10305200    1.17065501
 H         -2.06358504    0.86135101   -0.73542100
 C          0.98175597    0.72987199    0.34976101
 C          1.01689005   -0.71913600    0.67759299
 H          1.48100805    1.32071304    1.12431502
 O          1.68296099    0.92201602   -0.88182199
 C          0.22066601   -1.67560601   -0.13437299
 O          2.13630891   -1.13491094    1.32363904
 O         -0.32473701   -2.66507196    0.74848199
 H          0.86114901   -2.17667103   -0.87479699
 O         -0.39444301   -0.48822901   -2.18074989
 H         -1.70396197   -1.57357895   -1.08408594
 H         -2.95478392   -0.76004201    0.91988099
 O         -2.67417192    1.04387200    1.81050706
 H         -1.45074296   -0.63467699    1.85347104
 H         -1.94183004    1.64095294    2.00781798
 H          0.38134900    0.08032100   -2.03603411
 H         -0.58609998   -3.42551303    0.21458200
 C          1.93035901    2.29874802   -1.18071198
 H          2.55378604    2.31946492   -2.07393408
 H          2.46198106    2.77560806   -0.35052699
 H          0.99607599    2.83273602   -1.37183905
 H          2.08718991   -2.09191895    1.46045804
