26
wb97x-d4 ma-def2-tzvp(-f) cpcm(dmso) E: -726.357943178676, G: -726.181183
 C         -1.01454198    0.36978099    0.10347500
 C         -0.84869301   -0.96265203   -0.64884102
 O          0.10691700    0.68944597    0.94341999
 C         -2.23393798    0.39346799    1.02091706
 H         -1.13508999    1.16071606   -0.64638698
 C          1.36412096    0.34953400    0.39521301
 C          1.42744505   -1.12434399    0.22990701
 H          2.11169195    0.71726698    1.10744703
 O          1.57654703    0.97128499   -0.86307698
 C          0.17090100   -1.88463199    0.04185200
 O          2.66514802   -1.67104805    0.12741400
 O         -0.35954699   -2.42710805    1.27016902
 H          0.33878201   -2.74604106   -0.61102700
 O         -0.46004999   -0.75741500   -2.00593996
 H         -1.81438696   -1.46818900   -0.68442500
 H         -2.21835208   -0.46373001    1.69569600
 O         -3.44350600    0.30464101    0.27620500
 H         -2.20559406    1.30877995    1.62052298
 H         -3.56015611    1.12950397   -0.20986199
 H          0.28632900   -0.13776100   -2.00190997
 H         -0.17869200   -1.79222703    1.97420704
 C          1.68249500    2.39498401   -0.78003299
 H          0.73335803    2.84289408   -0.47470400
 H          1.95077801    2.74906993   -1.77451897
 H          2.46443009    2.67477298   -0.06654000
 H          2.59360600   -2.62099504   -0.03918200
