26
wb97x-d4 ma-def2-tzvp(-f) cpcm(dmso) E: -726.357280573704, G: -726.18101826
 C         -0.99070197    0.46082500    0.14836501
 C         -0.90893197   -0.86038798   -0.63731903
 O          0.18542500    0.72447401    0.93197399
 C         -2.15241098    0.51963598    1.13834095
 H         -1.12727499    1.26934600   -0.57804799
 C          1.39866602    0.34806699    0.31632501
 C          1.39853299   -1.12443697    0.12412000
 H          2.19564700    0.67071402    0.99642402
 O          1.57449996    0.98631501   -0.93963498
 C          0.10581300   -1.83493602   -0.01581700
 O          2.60851693   -1.71479702   -0.04428100
 O         -0.38497999   -2.37976503    1.22582102
 H          0.20963800   -2.68691897   -0.69425797
 O         -0.58064198   -0.63867903   -2.00668001
 H         -1.88867497   -1.34172702   -0.63914001
 H         -2.11772895   -0.33205399    1.82341194
 O         -3.40655708    0.58371198    0.46675900
 H         -2.05361795    1.43710494    1.72194397
 H         -3.69321799   -0.31240600    0.26039901
 H          0.18243800   -0.03949900   -2.02522206
 H         -0.14424600   -1.76513898    1.92998302
 C          1.73842597    2.40320897   -0.83208799
 H          2.56506491    2.63679910   -0.15304400
 H          0.82341498    2.87867093   -0.46976599
 H          1.97101498    2.77091789   -1.83074796
 H          2.49188805   -2.65904593   -0.21781901
