26
wb97x-d4 ma-def2-tzvp(-f) cpcm(dmso) E: -726.359826523061, G: -726.18093679
 C         -1.61550105    0.38121900   -0.04903400
 C         -0.97089100   -0.63902497   -0.99507803
 O         -0.67631501    1.26636803    0.60273302
 C         -2.49904990   -0.21152300    1.04182696
 H         -2.25947905    1.01127696   -0.67077899
 C          0.68979698    1.03533006    0.42568401
 C          1.01610506   -0.41402799    0.41820499
 H          1.21260095    1.53581500    1.24810898
 O          1.05294204    1.71035099   -0.79979700
 C          0.21841200   -1.38699698   -0.36967799
 O          2.20822811   -0.76628000    0.96795499
 O         -0.17592400   -2.51754594    0.41526401
 H          0.80969399   -1.80863905   -1.19150400
 O         -0.58500302   -0.02074700   -2.21975493
 H         -1.73485994   -1.37547195   -1.25298095
 H         -3.04665208    0.60281098    1.52537596
 O         -1.76936996   -0.94772100    2.02558494
 H         -3.22067189   -0.89955300    0.59769601
 H         -1.20955300   -0.32167301    2.50279593
 H          0.04639000    0.68729502   -1.99959302
 H         -0.71679699   -2.16387105    1.14672005
 C          2.46239710    1.72999406   -1.02569795
 H          2.63308501    2.36390305   -1.89501500
 H          2.84870911    0.72636199   -1.22509897
 H          2.98324895    2.15179992   -0.15910000
 H          2.29845810   -1.72944999    0.93515700
