26
wb97x-d4 ma-def2-tzvp(-f) cpcm(dmso) E: -726.363494097604, G: -726.1862512
 C         -0.87305403    0.38649699   -0.15908800
 C         -0.82747000   -1.14506698   -0.20338300
 O          0.08082900    0.87429899    0.79206097
 C         -2.22483993    0.93230700    0.26376200
 H         -0.64456201    0.77860898   -1.15777802
 C          1.43158805    0.51977801    0.48502600
 C          1.56163204   -0.96234000    0.33354199
 H          2.00986195    0.88384402    1.34081900
 O          1.85923100    1.11873901   -0.70719397
 C          0.57670897   -1.59533298   -0.60364598
 O          1.79601204   -1.61910295    1.50564897
 O          0.71997899   -3.00676608   -0.51454502
 H          0.76451999   -1.25042903   -1.62808394
 O         -1.73139405   -1.66584897   -1.17352796
 H         -1.05936503   -1.54469895    0.78867799
 H         -2.17420292    2.02683496    0.26798099
 O         -2.64523911    0.44122300    1.53311503
 H         -2.98271108    0.62777901   -0.45969099
 H         -1.99064302    0.71954501    2.18515611
 H         -2.58096695   -1.83237195   -0.75026101
 H         -0.07104700   -3.40254903   -0.90265298
 C          1.84868395    2.54479909   -0.65053302
 H          0.82724500    2.93039203   -0.59719801
 H          2.32472110    2.89846706   -1.56456900
 H          2.41489410    2.89772797    0.21890301
 H          1.58958900   -2.55633211    1.35746098
