26
wb97x-d4 ma-def2-tzvp(-f) cpcm(dmso) E: -726.358710044984, G: -726.18082285
 C         -0.83854002    0.31321701    0.13119000
 C         -0.81895602   -1.21389496   -0.02420900
 O          0.25582600    0.75486302    0.93564898
 C         -2.08802700    0.80684400    0.85553497
 H         -0.78744501    0.77232403   -0.86441600
 C          1.53721797    0.39308199    0.41233400
 C          1.61899400   -1.09587801    0.24224700
 H          2.24449396    0.75132298    1.17060196
 O          1.78302002    0.99589097   -0.82445699
 C          0.52388501   -1.66138995   -0.60616100
 O          1.91068804   -1.82597494    1.35903800
 O          0.62024999   -3.07600808   -0.67520702
 H          0.60578001   -1.22248399   -1.60867906
 O         -1.83291399   -1.66483295   -0.91422999
 H         -0.94420803   -1.67353201    0.96587902
 H         -2.16173410    0.31607801    1.82865000
 O         -3.28304791    0.47898099    0.14141400
 H         -2.01293206    1.88649702    1.01289201
 H         -3.37040591    1.09086895   -0.59984303
 H         -2.64971995   -1.19890702   -0.67472798
 H         -0.13780300   -3.38386011   -1.18745399
 C          1.81880200    2.42165399   -0.75562799
 H          0.83178902    2.83050394   -0.52460998
 H          2.13969111    2.77379203   -1.73538494
 H          2.53516603    2.74969101    0.00582800
 H          2.50012994   -1.31884897    1.93374896
