26
wb97x-d4 ma-def2-tzvp(-f) cpcm(dmso) E: -726.356904281125, G: -726.1806893099999
 C         -0.99152601    0.27410799    0.11522200
 C         -1.14638305   -1.22198105   -0.21564600
 O          0.20763300    0.52618402    0.85737699
 C         -2.12264800    0.81720299    0.97927201
 H         -0.95464897    0.82489699   -0.83068299
 C          1.38828003    0.26365599    0.12299400
 C          1.29724705   -1.10559201   -0.46699300
 H          2.20011997    0.33709899    0.86219001
 O          1.62071097    1.19533300   -0.90455198
 C          0.18186501   -1.97125804   -0.01436900
 O          2.42914391   -1.71400404   -0.91246802
 O          0.32744500   -2.39761806    1.35800695
 H          0.16016001   -2.89166808   -0.60148299
 O         -1.57116401   -1.30176604   -1.57423103
 H         -1.89502501   -1.67939198    0.43941799
 H         -2.14076591    0.27825701    1.92967606
 O         -3.39433599    0.61898899    0.37454700
 H         -1.94227695    1.87765896    1.18375099
 H         -3.43705797    1.16292906   -0.42095900
 H         -1.85592794   -2.20738196   -1.74586296
 H          0.36501700   -1.60025096    1.90242100
 C          1.97259498    2.49030900   -0.41431800
 H          2.82555890    2.42249203    0.26982301
 H          1.12901294    2.95619011    0.10215400
 H          2.24672294    3.09275699   -1.27975798
 H          3.10024595   -1.04715002   -1.11553001
