26
wb97x-d4 ma-def2-tzvp(-f) cpcm(dmso) E: -726.358743385682, G: -726.18067559
 C         -1.19710398    0.47400200    0.34914601
 C         -0.96243000   -1.02596498    0.11232300
 O         -0.14997900    1.03417897    1.14724398
 C         -2.48330307    0.74163902    1.12634695
 H         -1.24861896    0.98725200   -0.61880702
 C          1.14002705    0.90937102    0.58161098
 C          1.43815100   -0.52051502    0.25612301
 H          1.83553898    1.28122902    1.34273899
 O          1.17689800    1.73039496   -0.56752503
 C          0.39737901   -1.24669504   -0.55307800
 O          2.00361395   -1.22111595    1.27957296
 O          0.67148501   -2.64363408   -0.58317000
 H          0.35699499   -0.83332700   -1.56805503
 O         -2.03435898   -1.58969200   -0.64091802
 H         -0.96966302   -1.54314995    1.07665396
 H         -2.47857189    0.14344800    2.04673696
 O         -3.65272498    0.48603901    0.35842299
 H         -2.50604892    1.79725504    1.40373695
 H         -3.54761100   -0.39981300   -0.01822500
 H         -1.96601999   -1.28013802   -1.55466795
 H          1.28402305   -2.81831598   -1.30781901
 C          2.49663997    1.88716698   -1.07911301
 H          2.43029690    2.57985711   -1.91765106
 H          2.90376496    0.93149197   -1.42530000
 H          3.16158390    2.30331802   -0.31297100
 H          1.90003800   -2.16428208    1.06664503
