26
wb97x-d4 ma-def2-tzvp(-f) cpcm(dmso) E: -726.357140340594, G: -726.1806377199999
 C         -1.02118301    0.39686301    0.14048301
 C         -0.85745001   -0.91024202   -0.65037501
 O          0.12540901    0.74977702    0.93351603
 C         -2.19166589    0.35511401    1.11934400
 H         -1.20569801    1.19793999   -0.58596301
 C          1.36599803    0.34817299    0.40805101
 C          1.39448798   -1.13302302    0.28297600
 H          2.12137198    0.71425200    1.11532295
 O          1.61758995    0.92879897   -0.86782998
 C          0.14108600   -1.87152004    0.01502600
 O          2.56682110   -1.81394899    0.19179800
 O         -0.38297299   -2.41030788    1.24462199
 H          0.34112799   -2.69040108   -0.68474603
 O         -0.46282101   -0.66922599   -2.00001597
 H         -1.83440197   -1.39388895   -0.70754701
 H         -2.09579206   -0.51006299    1.77556705
 O         -3.43558407    0.22484300    0.43875799
 H         -2.17098999    1.26333797    1.73013794
 H         -3.61167312    1.05096698   -0.02689500
 H          0.30607000   -0.07716200   -1.97188902
 H         -1.09984100   -3.01553893    1.01573002
 C          1.74046099    2.35349107   -0.82389200
 H          2.04603100    2.67409492   -1.81900704
 H          2.50278401    2.64451098   -0.09373800
 H          0.78817999    2.82168698   -0.56296402
 H          3.31265712   -1.22853100    0.38353100
