26
wb97x-d4 ma-def2-tzvp(-f) cpcm(dmso) E: -726.357172707733, G: -726.18045037
 C         -1.29174995    0.38914999    0.06837400
 C         -1.01824498   -1.08218300   -0.28046700
 O         -0.32031199    0.90445000    0.99046701
 C         -2.64321995    0.59519500    0.73038298
 H         -1.27080595    0.97854000   -0.85724503
 C          1.01462400    0.81025398    0.54205000
 C          1.34762001   -0.60752499    0.17353600
 H          1.63436997    1.15264499    1.38191104
 O          1.15496099    1.68068600   -0.55870003
 C          0.41475999   -1.23708606   -0.81811798
 O          1.70536804   -1.45715106    1.18368804
 O          0.73999703   -2.58661604   -1.10605705
 H          0.48055801   -0.69112998   -1.76510894
 O         -1.98852503   -1.55749595   -1.20149505
 H         -1.12568903   -1.69469297    0.61854100
 H         -2.78972602    1.66746199    0.90218198
 O         -2.77252793   -0.13050100    1.94911802
 H         -3.42844200    0.23833700    0.06384500
 H         -2.08059311    0.17981300    2.54589796
 H         -1.88201296   -1.07679498   -2.03267598
 H          0.86446398   -3.04769397   -0.26657301
 C          2.51344705    1.84601295   -0.95416898
 H          2.51908302    2.57581401   -1.76326799
 H          2.94005489    0.90227598   -1.30917299
 H          3.11660504    2.22111392   -0.11900900
 H          2.16593695   -0.97288197    1.88206601
