26
wb97x-d4 ma-def2-tzvp(-f) cpcm(dmso) E: -726.358301773246, G: -726.17996136
 C         -1.29766095    0.60511100   -0.04893500
 C         -0.92261499   -0.58332199   -0.92974401
 O         -0.15071100    1.39585900    0.31935200
 C         -2.01829600    0.22056700    1.25078905
 H         -1.92979598    1.27125096   -0.64104700
 C          1.09094000    0.73374200    0.41558301
 C          0.94952703   -0.72792101    0.64963299
 H          1.64122796    1.20977902    1.23402405
 O          1.84022701    0.91990000   -0.78932703
 C          0.02446800   -1.53599894   -0.18352300
 O          1.99417305   -1.31004798    1.29085100
 O         -0.70579398   -2.43798900    0.67377198
 H          0.57737201   -2.13178706   -0.92235899
 O         -0.36900201   -0.15438101   -2.16646290
 H         -1.83266497   -1.13126802   -1.17753506
 H         -1.28843606   -0.19021399    1.95516896
 O         -3.09258509   -0.68851602    1.04971600
 H         -2.43880606    1.12733400    1.69066405
 H         -2.68981290   -1.56245899    0.94615901
 H          0.46102700    0.31399599   -1.97128296
 H         -0.91996402   -3.22386909    0.15555100
 C          2.22895598    2.28086400   -0.99552298
 H          1.35498202    2.91789508   -1.15297401
 H          2.85986900    2.29792595   -1.88383603
 H          2.79762793    2.64565802   -0.13345300
 H          1.83574498   -2.26210999    1.36474001
