26
wb97x-d4 ma-def2-tzvp(-f) cpcm(dmso) E: -726.356992152075, G: -726.17976604
 C         -1.24179995    0.51170802    0.01686500
 C         -0.86120600   -0.68906599   -0.84431303
 O         -0.10957600    1.30946302    0.41493100
 C         -2.01953101    0.13700099    1.27955794
 H         -1.86273599    1.17310596   -0.59537101
 C          1.15449405    0.68797898    0.44207999
 C          1.05460095   -0.77024800    0.70563197
 H          1.73182094    1.19428003    1.22251701
 O          1.82929301    0.87179500   -0.80516303
 C          0.16561800   -1.60098696   -0.14607000
 O          2.12953997   -1.32849300    1.31878304
 O         -0.43993899   -2.59923506    0.68567997
 H          0.74884802   -2.10498595   -0.93127698
 O         -0.39155701   -0.27563900   -2.12324905
 H         -1.76676798   -1.27130699   -1.02080297
 H         -1.44684398   -0.56591898    1.88540006
 O         -3.25803089   -0.49571499    0.97449499
 H         -2.17670703    1.04928100    1.86460900
 H         -3.84788704    0.16368601    0.59047800
 H          0.43641201    0.21320100   -1.97940600
 H         -0.77265698   -3.29956198    0.11095700
 C          2.16865611    2.23698497   -1.06182599
 H          1.27058995    2.84501696   -1.19782996
 H          2.76066804    2.24824905   -1.97660506
 H          2.76230788    2.64100194   -0.23477300
 H          1.98239005   -2.28159499    1.40470004
