26
wb97x-d4 ma-def2-tzvp(-f) cpcm(dmso) E: -726.356536281615, G: -726.17944359
 C         -1.65166795    0.22886901   -0.04587900
 C         -0.93872303   -0.81236798   -0.90695202
 O         -0.81837201    1.37172902    0.26056099
 C         -2.21358299   -0.32935399    1.25435996
 H         -2.47884011    0.63946497   -0.62999499
 C          0.56767201    1.17120898    0.28064001
 C          0.93172199   -0.23802900    0.57622999
 H          1.00115299    1.84244895    1.02926898
 O          1.02479899    1.60372996   -1.02093995
 C          0.33729699   -1.33935595   -0.22002199
 O          2.06170201   -0.43858501    1.30171502
 O          0.07713500   -2.43400407    0.66900498
 H          1.02798903   -1.67985499   -1.00565398
 O         -0.65544498   -0.29997700   -2.20277596
 H         -1.61854506   -1.65511203   -1.04960895
 H         -2.89064097   -1.15731096    1.03478396
 O         -2.97852898    0.66120398    1.93904400
 H         -1.40720797   -0.69808501    1.89431298
 H         -2.38711500    1.40434599    2.11217403
 H         -0.04914700    0.45325699   -2.08982396
 H          0.01319600   -3.23715210    0.13797900
 C          2.44533300    1.58029401   -1.15520298
 H          2.91801310    2.15094805   -0.34857601
 H          2.67736912    2.04548907   -2.11246991
 H          2.83049011    0.55633998   -1.14630902
 H          2.17394400   -1.39014304    1.44413495
