26
wb97x-d4 ma-def2-tzvp(-f) cpcm(dmso) E: -726.362072916572, G: -726.18623336
 C         -1.03971899    0.40784100   -0.17463200
 C         -1.15970004   -1.11102295   -0.12586001
 O         -0.08758000    0.83471602    0.80597198
 C         -2.33745909    1.12510395    0.15100899
 H         -0.71685702    0.71929002   -1.17531896
 C          1.22694504    0.38365301    0.57358199
 C          1.25733697   -1.10172498    0.38889199
 H          1.79528201    0.68473297    1.46402895
 O          1.80193806    0.98969603   -0.56702101
 C          0.18681601   -1.75559998   -0.42127100
 O          2.46929193   -1.72059798    0.31893101
 O          0.05588200   -3.15187812   -0.14328800
 H          0.39969000   -1.62629402   -1.49511504
 O         -2.13288808   -1.50823998   -1.08270299
 H         -1.47224402   -1.40870798    0.88144797
 H         -2.16591311    2.20486593    0.07618500
 O         -2.84386110    0.78480202    1.43787897
 H         -3.09928799    0.84161103   -0.57528597
 H         -2.17798996    1.03857994    2.08851910
 H         -2.15713596   -2.47318602   -1.08357501
 H          0.78648001   -3.61538792   -0.56818402
 C          2.01732898    2.39109302   -0.40264401
 H          1.06820703    2.92950010   -0.33242500
 H          2.56494808    2.73245502   -1.28078103
 H          2.61142111    2.58455205    0.49788201
 H          3.14906693   -1.17985106    0.74377602
