27
wb97x-d4 ma-def2-tzvp(-f) cpcm(dmso) E: -727.02888244046, G: -726.8368372699999
 C         -1.07352602   -0.23010001   -0.08804600
 C         -1.02670801    1.29832304   -0.05002400
 O         -0.01515600   -0.74557698   -0.90996802
 C         -2.36024404   -0.74671900   -0.69873101
 H         -0.97307497   -0.62714303    0.92943501
 C          1.27818096   -0.38050699   -0.49384400
 C          1.45436704    1.13583696   -0.46876901
 H          1.95183897   -0.83582598   -1.22713304
 O          1.57313097   -0.84348100    0.80223602
 C          0.35743901    1.79308605    0.37457800
 H          2.43182898    1.36531901   -0.03277800
 O          1.38379896    1.57232904   -1.81939495
 O          0.55738002    1.56716299    1.76927197
 H          0.40087900    2.87674809    0.23401301
 O         -2.01764989    1.80933797    0.83053303
 H         -1.25091696    1.68672597   -1.04652297
 H         -3.20951200   -0.36704400   -0.13022999
 O         -2.43554306   -2.16884398   -0.65790302
 H         -2.43793511   -0.38536999   -1.73184204
 H         -1.66635597   -2.51214790   -1.12900496
 H         -1.65379703    1.73286796    1.72430897
 H          0.84707499    0.64833200    1.88158500
 C          1.55735898   -2.26745796    0.91637099
 H          2.23405099   -2.71137595    0.17871000
 H          0.54876798   -2.66195202    0.77056003
 H          1.90278804   -2.50400400    1.92191696
 H          1.64153302    2.50147891   -1.84932601
