27
wb97x-d4 ma-def2-tzvp(-f) cpcm(dmso) E: -727.02920768325, G: -726.83665217
 C         -1.02434897   -0.28554299    0.01958400
 C         -1.00419903    1.24415100   -0.01194400
 O          0.03008800   -0.81750602   -0.80170298
 C         -2.31355309   -0.87611800   -0.51890397
 H         -0.89931899   -0.63061100    1.05314398
 C          1.32793295   -0.41755301   -0.41433200
 C          1.46409202    1.10111904   -0.50609303
 H          1.99890304   -0.91224498   -1.12464499
 O          1.63419998   -0.79562700    0.90201199
 C          0.38326201    1.78948605    0.33465299
 H          2.44903994    1.39849901   -0.14150800
 O          1.38889098    1.50695205   -1.86488903
 O          0.63264602    1.65333998    1.73382199
 H          0.40394101    2.86134696    0.12487600
 O         -1.97543395    1.77312005    0.87865198
 H         -1.27912700    1.57862997   -1.01499999
 H         -2.26980710   -1.96672499   -0.42076600
 O         -2.56620693   -0.50523502   -1.87056506
 H         -3.15100908   -0.50633800    0.07413700
 H         -1.84690404   -0.85534799   -2.41004395
 H         -1.57442296    1.75629902    1.75965202
 H          0.93115300    0.74482399    1.89540994
 C          1.64753997   -2.21061492    1.10393202
 H          1.99720502   -2.37717891    2.12188101
 H          2.33316588   -2.68453789    0.39402500
 H          0.64674902   -2.63303709    0.98393297
 H          0.63552302    1.06645095   -2.27932191
