27
wb97x-d4 ma-def2-tzvp(-f) cpcm(dmso) E: -727.024314939526, G: -726.83401654
 C         -1.00482702   -0.28981099    0.14926800
 C         -0.97130102    1.23228204    0.04277000
 O         -0.02130200   -0.83748698   -0.73811102
 C         -2.33135605   -0.90032101   -0.26116499
 H         -0.79100698   -0.59016502    1.18098199
 C          1.30709195   -0.47571799   -0.42868999
 C          1.49882901    1.04507506   -0.39486399
 H          1.89978302   -0.89911699   -1.25013995
 O          1.73339605   -1.00705898    0.79325497
 C          0.41238701    1.76665604    0.39871499
 H          2.47048593    1.26128304    0.06043000
 O          1.42999399    1.56547904   -1.71873295
 O          0.68536597    1.60149705    1.78503501
 H          0.45626700    2.82968402    0.13433900
 O         -1.89335597    1.82890606    0.95403600
 H         -1.20345700    1.52449703   -0.98445702
 H         -2.26628709   -1.98866904   -0.15000699
 O         -2.70890403   -0.55304700   -1.59045005
 H         -3.12250805   -0.53585202    0.39646000
 H         -2.00338101   -0.84822500   -2.17919302
 H         -2.75291610    1.90418804    0.52639502
 H         -0.05973700    1.98573196    2.26397896
 C          1.75671899   -2.43246198    0.79927498
 H          2.35944796   -2.81104589   -0.03476300
 H          0.74615699   -2.84448004    0.72922099
 H          2.20838690   -2.73654294    1.74329996
 H          2.16602612    1.20472097   -2.22688699
