27
wb97x-d4 ma-def2-tzvp(-f) cpcm(dmso) E: -727.024448204897, G: -726.83395294
 C         -0.98921299   -0.31162399    0.15995000
 C         -0.94068301    1.20490003   -0.00433300
 O         -0.02580200   -0.89942902   -0.72369897
 C         -2.32869911   -0.92406201   -0.20316400
 H         -0.75997603   -0.57643402    1.19808805
 C          1.31236899   -0.54604101   -0.44536000
 C          1.52469599    0.96812600   -0.46146601
 H          1.88792205   -0.99699003   -1.26205397
 O          1.74733102   -1.04253602    0.78811997
 C          0.45296401    1.73425996    0.31706399
 H          2.50335312    1.18215895   -0.02063400
 O          1.49384904    1.34415197   -1.83554196
 O          0.74049401    1.62140000    1.70562303
 H          0.50369400    2.78879905    0.01501300
 O         -1.84574795    1.84958303    0.89054602
 H         -1.17869401    1.45899296   -1.04035604
 H         -2.26832509   -2.00879097   -0.05933300
 O         -2.73522902   -0.61572099   -1.53357196
 H         -3.10229707   -0.53404301    0.46074700
 H         -2.05468988   -0.94930702   -2.13097000
 H         -2.71514893    1.89522195    0.47879201
 H          0.00947400    2.03847289    2.17876506
 C          1.75462902   -2.46702790    0.83819699
 H          2.22133303   -2.74664402    1.78242505
 H          2.33679795   -2.87837291    0.00510300
 H          0.73851198   -2.86945605    0.80042398
 H          1.71708596    2.28041101   -1.89837098
