27
wb97x-d4 ma-def2-tzvp(-f) cpcm(dmso) E: -727.024714210666, G: -726.8337870199999
 C         -1.04082406   -0.22551100    0.08721400
 C         -0.99717301    1.29516900    0.12830000
 O         -0.09064600   -0.68760800   -0.87964499
 C         -2.38428807   -0.76257801   -0.36401999
 H         -0.79483402   -0.63355500    1.07333004
 C          1.25279903   -0.38501200   -0.56807601
 C          1.47108805    1.12310398   -0.39711601
 H          1.81676900   -0.73799700   -1.44151795
 O          1.69610095   -1.03877902    0.58608103
 C          0.41071501    1.78452396    0.48093900
 H          2.45412993    1.28156996    0.05773500
 O          1.38719106    1.76554000   -1.66491795
 O          0.71063602    1.50432003    1.84068406
 H          0.46009800    2.86617088    0.30219501
 O         -1.92173898    1.73769403    1.12203002
 H         -1.27604496    1.68434095   -0.85615402
 H         -3.16115689   -0.43984801    0.32892600
 O         -2.39985800   -2.18714809   -0.37404299
 H         -2.61477804   -0.36674699   -1.36140001
 H         -1.66421700   -2.47620893   -0.92854702
 H         -2.13640404    2.66203403    0.94837099
 H         -0.08554300    1.72274101    2.34439397
 C          1.69412994   -2.45865798    0.45546600
 H          0.67427802   -2.84720802    0.38476700
 H          2.17424512   -2.85827208    1.34843898
 H          2.25966692   -2.76369691   -0.43305200
 H          2.10566211    1.44161904   -2.22038293
