27
wb97x-d4 ma-def2-tzvp(-f) cpcm(dmso) E: -727.023965232457, G: -726.83357371
 C         -1.19684803   -0.23952900   -0.01150800
 C         -1.23714900    1.29364204    0.05963600
 O         -0.12122800   -0.67036098   -0.84884101
 C         -2.46761799   -0.82281703   -0.59109002
 H         -1.04804099   -0.62630701    1.00257003
 C          1.15340400   -0.42065099   -0.28498101
 C          1.20594501    0.94653600    0.40692699
 H          1.84777904   -0.43726200   -1.13260698
 O          1.51596797   -1.38979995    0.65910602
 C          0.16253901    1.85140395   -0.22708701
 H          0.98094201    0.82247299    1.47098100
 O          2.47845793    1.56287205    0.24678400
 O          0.22543900    3.17070103    0.29481599
 H          0.32113999    1.87075603   -1.31138694
 O         -1.67355001    1.64160597    1.36749196
 H         -1.93765104    1.69691896   -0.68202800
 H         -3.32183504   -0.47191599   -0.00812800
 O         -2.47770905   -2.24465609   -0.53436601
 H         -2.58390903   -0.47276199   -1.62457097
 H         -1.69674599   -2.55575299   -1.00893104
 H         -1.44068205    2.57079101    1.49912095
 H          1.16109598    3.39709401    0.38063899
 C          1.72575104   -2.67950606    0.08505500
 H          2.46450591   -2.62374592   -0.72267503
 H          0.79169202   -3.09155011   -0.30591401
 H          2.10218191   -3.32306910    0.87963200
 H          3.06612492    1.24488902    0.94135600
