27
wb97x-d4 ma-def2-tzvp(-f) cpcm(dmso) E: -727.023816290768, G: -726.83342427
 C         -1.06840301   -0.30984300    0.22611700
 C         -1.11384904    1.21430802    0.04707100
 O         -0.10050900   -0.87597901   -0.65986401
 C         -2.39527392   -0.98466301   -0.06310300
 H         -0.79419398   -0.52410001    1.26568103
 C          1.23222697   -0.56478697   -0.29900199
 C          1.36249399    0.88219100    0.17284000
 H          1.81768596   -0.71464002   -1.21288300
 O          1.70706701   -1.39676201    0.72315699
 C          0.25093800    1.71729696   -0.45089200
 H          1.26213503    0.91012901    1.26562703
 O          2.64851594    1.35050595   -0.20716000
 O          0.43703699    3.09460711   -0.16413400
 H          0.29851201    1.61566496   -1.53763998
 O         -1.41345596    1.79434204    1.31973803
 H         -1.88502502    1.49342799   -0.67322499
 H         -2.31450009   -2.05220389    0.16939700
 O         -2.81816912   -0.79518503   -1.41011798
 H         -3.16426611   -0.54656202    0.57687199
 H         -2.15393996   -1.19881701   -1.98204696
 H         -2.13040209    2.42716002    1.20727098
 H          0.10059700    3.23520398    0.73325098
 C          1.85872996   -2.75559402    0.31530800
 H          0.89059001   -3.20699906    0.08277000
 H          2.31588888   -3.28751302    1.14926302
 H          2.51092005   -2.82190800   -0.56303698
 H          2.65864801    2.30071902   -0.03125700
