27
wb97x-d4 ma-def2-tzvp(-f) cpcm(dmso) E: -727.02388568177, G: -726.83329147
 C         -1.03242803   -0.36801901    0.01242600
 C         -1.04555297    1.14998305   -0.16674501
 O          0.02920900   -0.91425800   -0.77813399
 C         -2.32566690   -1.03781104   -0.41785800
 H         -0.87181300   -0.61375701    1.06917298
 C          1.31565297   -0.49717799   -0.37900600
 C          1.45915306    1.03031898   -0.38107800
 H          1.98617494   -0.92289901   -1.13698602
 O          1.66713905   -0.97805399    0.88903201
 C          0.28212500    1.74533200    0.28847000
 H          2.38249493    1.29198802    0.14664400
 O          1.49234605    1.50736105   -1.72289705
 O          0.31880701    1.62662494    1.70825803
 H          0.31928399    2.80099893    0.00029900
 O         -2.12997699    1.74930203    0.52973598
 H         -1.17990196    1.37546301   -1.22651601
 H         -2.18652010   -2.12023401   -0.36966300
 O         -2.70913196   -0.73233002   -1.75720799
 H         -3.11711693   -0.76043802    0.28342399
 H         -3.15467405    0.12193600   -1.75772405
 H         -1.85998297    1.81484795    1.45634699
 H          0.96932501    2.25007296    2.04943609
 C          1.75229502   -2.40042901    0.93427002
 H          2.15095091   -2.66259289    1.91408896
 H          2.42757511   -2.76963496    0.15327799
 H          0.76832700   -2.85988212    0.80578297
 H          2.29190898    1.17328894   -2.14684701
