27
wb97x-d4 ma-def2-tzvp(-f) cpcm(dmso) E: -727.023915776859, G: -726.83306805
 C         -1.44035494   -0.27562299    0.27300400
 C         -1.28439403    1.24110794    0.25239599
 O         -0.29480901   -0.91763800    0.83802599
 C         -1.79701400   -0.86779100   -1.09579802
 H         -2.25690889   -0.51259297    0.96051800
 C          0.93672001   -0.59966701    0.20127600
 C          1.19891500    0.89813697    0.29116300
 H          0.91297102   -0.92105299   -0.85095102
 O          1.95530903   -1.25780904    0.87610799
 C          0.05082000    1.64603901   -0.36165199
 H          1.27371097    1.17318904    1.34874296
 O          2.38321495    1.26027596   -0.40774000
 O          0.18469600    3.05379009   -0.19834000
 H          0.03968300    1.39747298   -1.43030500
 O         -1.38819003    1.70891702    1.59499896
 H         -2.09253192    1.66516900   -0.35382500
 H         -1.11344004   -0.53329200   -1.87778401
 O         -3.09621000   -0.46227100   -1.51268101
 H         -1.72494400   -1.95814705   -1.02309597
 H         -3.74407911   -0.87348300   -0.92786300
 H         -1.09353697    2.62907100    1.59678698
 H          1.08653903    3.29347706   -0.44583499
 C          2.01871204   -2.65672398    0.59358197
 H          2.90791011   -3.03793192    1.09461296
 H          2.10478306   -2.82419610   -0.48540500
 H          1.13393605   -3.17365694    0.97419900
 H          3.13849497    0.90522802    0.07586300
