27
wb97x-d4 ma-def2-tzvp(-f) cpcm(dmso) E: -727.029161821061, G: -726.83659962
 C         -1.03686595   -0.18313800   -0.08260500
 C         -0.99494302    1.34292305    0.02577900
 O          0.02237200   -0.65291899   -0.93512702
 C         -2.32411790   -0.67642802   -0.71057701
 H         -0.92738998   -0.62805098    0.91306001
 C          1.31895304   -0.32411900   -0.47960299
 C          1.48462701    1.19402599   -0.43386501
 H          1.99804401   -0.76734197   -1.21551895
 O          1.58380103   -0.82550699    0.80390400
 C          0.39759099    1.82796597    0.44160700
 H          2.46595812    1.44005406   -0.02418900
 O          1.44551003    1.71776605   -1.75349903
 O          0.61435503    1.56650198    1.82779002
 H          0.44109300    2.91311407    0.32528201
 O         -1.96894503    1.81066406    0.94621402
 H         -1.24652696    1.77425098   -0.94795698
 H         -3.17158294   -0.32037500   -0.12419100
 O         -2.39829612   -2.09877801   -0.72658497
 H         -2.40582490   -0.27314201   -1.72775698
 H         -1.63534796   -2.42310190   -1.22067595
 H         -1.57715499    1.71645105    1.82671297
 H          0.89329302    0.64173597    1.91563404
 C          1.57542205   -2.25358891    0.87288702
 H          1.89178002   -2.51910591    1.88061404
 H          2.27756500   -2.66840100    0.14239199
 H          0.57427102   -2.64872599    0.68383998
 H          0.70236403    1.31726801   -2.22356391
