27
wb97x-d4 ma-def2-tzvp(-f) cpcm(dmso) E: -727.02402650821, G: -726.8324434699999
 C         -0.91485101   -0.27931699   -0.07102800
 C         -0.88601398    1.24130404   -0.21748801
 O          0.16245000   -0.83442402   -0.82509899
 C         -2.17304206   -0.90966100   -0.64497900
 H         -0.82100499   -0.55200601    0.98602498
 C          1.44285500   -0.45874500   -0.35954100
 C          1.62741494    1.06423497   -0.33453801
 H          2.13145494   -0.89459503   -1.09473395
 O          1.71562099   -0.96704799    0.91393000
 C          0.44256601    1.80370402    0.28219199
 H          2.52416801    1.29135299    0.25037301
 O          1.75273001    1.55521095   -1.66560197
 O          0.53048700    1.70051897    1.69680095
 H          0.51276797    2.85561109   -0.02061900
 O         -1.90698397    1.87565696    0.54750800
 H         -0.99393600    1.48599994   -1.28130698
 H         -2.29521704   -0.60183001   -1.68903804
 O         -3.28408098   -0.46852499    0.14368699
 H         -2.08142400   -1.99957001   -0.60357302
 H         -4.09882784   -0.68776900   -0.32211700
 H         -2.69616103    1.31223094    0.49464300
 H         -0.34361500    1.93831396    2.03585696
 C          1.75983000   -2.39190698    0.94298398
 H          2.46383595   -2.76959205    0.19209000
 H          0.77152902   -2.82190204    0.75822598
 H          2.10050702   -2.67654109    1.93815601
 H          2.55693793    1.18929398   -2.05281091
