27
wb97x-d4 ma-def2-tzvp(-f) cpcm(dmso) E: -727.022914359586, G: -726.83242819
 C         -1.47389698   -0.27455699    0.54332399
 C         -1.31508899    1.24447799    0.47018501
 O         -0.25303900   -0.92203599    0.91670698
 C         -2.14558101   -0.89712697   -0.67036802
 H         -2.14641404   -0.47505999    1.38161695
 C          0.88827997   -0.59298497    0.13368300
 C          1.15184999    0.90511900    0.20191000
 H          0.73755300   -0.91249001   -0.90498298
 O          1.98615897   -1.24374700    0.68645602
 C         -0.06572600    1.65820003   -0.29965901
 H          1.35342801    1.17232597    1.24525595
 O          2.24440598    1.27883899   -0.62938899
 O          0.08748900    3.06538701   -0.12170700
 H         -0.20947599    1.42658997   -1.35842395
 O         -1.25094402    1.72859800    1.81059694
 H         -2.19431710    1.66482496   -0.03286200
 H         -2.16125298   -1.98355603   -0.53001601
 O         -1.46681499   -0.55733401   -1.87901795
 H         -3.18069100   -0.53622901   -0.70091701
 H         -1.92234695   -0.99238801   -2.60843205
 H         -0.90788502    2.63105607    1.76399696
 H          0.95850199    3.30962110   -0.45851600
 C          2.03805995   -2.63672495    0.37714401
 H          2.97652602   -3.01440096    0.78246999
 H          2.01939392   -2.78801894   -0.70760202
 H          1.20133102   -3.17178893    0.83446199
 H          3.05049801    0.91340399   -0.24591500
