27
wb97x-d4 ma-def2-tzvp(-f) cpcm(dmso) E: -727.02459515724, G: -726.83241214
 C         -0.88493299   -0.25478199   -0.12515400
 C         -0.83552903    1.26911294   -0.21649601
 O          0.19391499   -0.79659599   -0.89101899
 C         -2.15227008   -0.84009701   -0.73551702
 H         -0.80061603   -0.56815100    0.92153698
 C          1.47633600   -0.46602800   -0.38320801
 C          1.67429197    1.05158103   -0.36331800
 H          2.17257905   -0.90997702   -1.10427999
 O          1.69646394   -0.98656797    0.89236200
 C          0.50584799    1.79997206    0.28514299
 H          2.58760095    1.28030002    0.18846899
 O          1.87878501    1.51349199   -1.69473696
 O          0.60329700    1.66476595    1.69643402
 H          0.59217101    2.85676408    0.00382200
 O         -1.84486794    1.88911295    0.57301700
 H         -0.95428997    1.54997694   -1.27178502
 H         -2.25892997   -0.49282399   -1.76613402
 O         -3.32097197   -0.40425000   -0.03340200
 H         -2.08587909   -1.93169200   -0.73842603
 H         -3.39715695   -0.91915399    0.77949899
 H         -2.64601398    1.34716499    0.48870999
 H         -0.26101699    1.91466200    2.05112290
 C          1.71503496   -2.41289496    0.91094500
 H          2.01000810   -2.71062112    1.91679502
 H          2.44208002   -2.79678297    0.18584600
 H          0.72729403   -2.82337499    0.68327397
 H          1.16676903    1.17688799   -2.25349998
