27
wb97x-d4 ma-def2-tzvp(-f) cpcm(dmso) E: -727.023308771924, G: -726.83176916
 C         -1.11577499   -0.29092801    0.15110700
 C         -1.14398098    1.23622501   -0.03442600
 O         -0.09719600   -0.86440599   -0.66921198
 C         -2.42551994   -0.96069002   -0.22113401
 H         -0.90696698   -0.51944602    1.20462000
 C          1.21425903   -0.54013300   -0.24393100
 C          1.33218300    0.93230802    0.15135100
 H          1.85117400   -0.74638999   -1.11106706
 O          1.61559606   -1.31390297    0.85207099
 C          0.22475600    1.72493899   -0.53099000
 H          1.22317100    1.01512301    1.24071705
 O          2.62030196    1.38825297   -0.23540200
 O          0.38945600    3.11734891   -0.30982599
 H          0.29122299    1.56400704   -1.60980797
 O         -1.52286899    1.89948702    1.17244005
 H         -1.90439606    1.51799202   -0.76378602
 H         -2.36292291   -2.02875996    0.01436400
 O         -2.76201701   -0.76659697   -1.59085298
 H         -3.23038697   -0.51977801    0.37103999
 H         -2.06699705   -1.17555106   -2.12100911
 H         -1.05062902    1.51068795    1.92022002
 H         -0.07950500    3.32211804    0.51298100
 C          1.78102803   -2.69523692    0.53436500
 H          2.18283606   -3.17819309    1.42476201
 H          2.48494697   -2.81536889   -0.29686099
 H          0.82527399   -3.15535808    0.26986501
 H          2.63295889    2.34224892   -0.08159800
