27
wb97x-d4 ma-def2-tzvp(-f) cpcm(dmso) E: -727.022960657984, G: -726.83172256
 C         -1.37372100   -0.20318300    0.34521499
 C         -1.17901099    1.30410600    0.22381400
 O         -0.20172600   -0.80666202    0.89972299
 C         -1.80734396   -0.87905598   -0.96021098
 H         -2.15577888   -0.38389900    1.08837402
 C          0.98848599   -0.61385101    0.13642900
 C          1.30158198    0.87207001    0.04619900
 H          0.86244297   -1.04144502   -0.86896199
 O          2.02289200   -1.25467205    0.80004197
 C          0.10647400    1.62177396   -0.53765899
 H          1.50634396    1.23416495    1.06232703
 O          2.44788790    1.04007494   -0.77497602
 O          0.36572999    3.02011108   -0.55842501
 H         -0.01083200    1.32109702   -1.58238494
 O         -1.15828395    1.92985296    1.50858903
 H         -2.02710700    1.73937905   -0.30742800
 H         -1.14696801   -0.63259202   -1.79256594
 O         -3.10534596   -0.44693199   -1.35118997
 H         -1.77553499   -1.96355295   -0.80954200
 H         -3.74404502   -0.78940898   -0.71435899
 H         -0.61470401    1.39618301    2.10252500
 H          0.21598899    3.34366202    0.34138900
 C          1.98056901   -2.67737794    0.67826700
 H          1.10601699   -3.08985996    1.18805695
 H          2.88834906   -3.05864191    1.14479196
 H          1.96014595   -2.96945596   -0.37742901
 H          2.54749203    1.98811495   -0.93061101
