27
wb97x-d4 ma-def2-tzvp(-f) cpcm(dmso) E: -727.022147310087, G: -726.83143477
 C         -0.98696899   -0.30987000   -0.01288300
 C         -1.01601005    1.19919097   -0.30496800
 O          0.08331500   -0.92538899   -0.72287101
 C         -2.27256894   -0.99410701   -0.43310300
 H         -0.84813201   -0.44394401    1.06641495
 C          1.35506594   -0.58008802   -0.19818400
 C          1.40454900    0.88229698    0.24247099
 H          2.05661607   -0.74577600   -1.02344596
 O          1.70143700   -1.37436295    0.90031600
 C          0.41073301    1.69173801   -0.58332700
 H          1.13094795    0.94554502    1.30325794
 O          2.73452306    1.34380996    0.05616000
 O          0.55322099    3.08058500   -0.32407299
 H          0.63917702    1.54527700   -1.64176702
 O         -1.50901794    1.91481304    0.82514298
 H         -1.64805996    1.40599406   -1.17510295
 H         -2.39648700   -0.90354502   -1.51806402
 O         -3.33130693   -0.32517901    0.25544801
 H         -2.23798299   -2.05513310   -0.16519600
 H         -4.17043114   -0.59916699   -0.13019601
 H         -2.42678499    1.64180005    0.95345902
 H         -0.02716300    3.28839111    0.42241901
 C          1.96338105   -2.73245001    0.55113602
 H          1.05952001   -3.22673798    0.18482301
 H          2.30855989   -3.23070788    1.45670295
 H          2.74355602   -2.78684592   -0.21658300
 H          2.72631502    2.29385900    0.23201200
