27
wb97x-d4 ma-def2-tzvp(-f) cpcm(dmso) E: -727.029208654911, G: -726.8365847599999
 C         -1.02474105   -0.28970999   -0.00559900
 C         -1.01025498    1.24015105   -0.03202700
 O          0.05189200   -0.81479800   -0.80210602
 C         -2.29718208   -0.88431698   -0.57868099
 H         -0.92433703   -0.63739800    1.02976501
 C          1.33825898   -0.41033500   -0.38254201
 C          1.46966100    1.10918498   -0.46612501
 H          2.02829599   -0.89939201   -1.07832205
 O          1.61507595   -0.79179102    0.93946701
 C          0.36596501    1.79011595    0.35018599
 H          2.44419003    1.40960705   -0.07693700
 O          1.42548501    1.51926005   -1.82498205
 O          0.58185101    1.65000701    1.75445902
 H          0.38716599    2.86275005    0.14460599
 O         -2.00482392    1.76218998    0.83653200
 H         -1.26213002    1.57688606   -1.04034805
 H         -2.25242209   -1.97480094   -0.47951701
 O         -2.51399112   -0.51421702   -1.93682694
 H         -3.15165305   -0.51749599   -0.00853200
 H         -1.77629697   -0.85819602   -2.45502400
 H         -1.62453794    1.74482501    1.72670901
 H          0.87974697    0.74204898    1.92032003
 C          1.63371801   -2.20766211    1.13504601
 H          2.33961201   -2.67316508    0.43956301
 H          0.63920897   -2.63651395    0.98879802
 H          1.96005404   -2.37685394    2.16025209
 H          0.68219101    1.07961798   -2.25813198
