27
wb97x-d4 ma-def2-tzvp(-f) cpcm(dmso) E: -727.023444827117, G: -726.83130106
 C         -1.15290403   -0.45623401    0.02753100
 C         -0.95095599    0.92781901    0.66286498
 O         -0.07453700   -0.82128400   -0.85251701
 C         -2.41237998   -0.49828601   -0.82121402
 H         -1.23130202   -1.20390296    0.82390201
 C          1.20035899   -0.44234699   -0.38797599
 C          1.35191798    1.08249402   -0.33247501
 H          1.91045201   -0.86640298   -1.10410905
 O          1.45255494   -0.93826401    0.90609300
 C         -0.01725200    1.75453198   -0.21333800
 H          1.95592797    1.33358502    0.54544699
 O          2.02861500    1.48877501   -1.51798105
 O          0.10735100    3.09088397    0.25611600
 H         -0.44898799    1.82014799   -1.21479499
 O         -0.46800500    0.86480498    2.00515008
 H         -1.91525495    1.43766105    0.72371697
 H         -3.27857208   -0.32614800   -0.17986600
 O         -2.59592605   -1.76839006   -1.43517601
 H         -2.37393808    0.29473701   -1.57822800
 H         -1.81994796   -1.93687797   -1.98388100
 H          0.25298399    0.21554500    2.02441597
 H          0.32509699    3.04135990    1.19697797
 C          1.49570096   -2.36645007    0.96440601
 H          1.76853895   -2.62925410    1.98544705
 H          2.25164604   -2.74692106    0.27006000
 H          0.52391899   -2.80141711    0.71943498
 H          2.11489701    2.44983411   -1.49001098
