27
wb97x-d4 ma-def2-tzvp(-f) cpcm(dmso) E: -727.023517373325, G: -726.83113784
 C         -1.17462897   -0.43856600    0.05794000
 C         -0.94748700    0.91712701    0.74058902
 O         -0.12553900   -0.78094101   -0.86576903
 C         -2.45952392   -0.43981799   -0.75328797
 H         -1.23574901   -1.21569598    0.82759500
 C          1.16024005   -0.38863099   -0.44827199
 C          1.29557204    1.14198899   -0.38704401
 H          1.84544098   -0.79981500   -1.19700396
 O          1.47592103   -0.89533401    0.82816899
 C         -0.06173000    1.79785097   -0.13342901
 H          1.98119295    1.39242601    0.42840901
 O          1.78497303    1.66037500   -1.61885703
 O          0.07871800    3.09724212    0.42219001
 H         -0.55103701    1.92780006   -1.10209000
 O         -0.40868399    0.80270398    2.05780697
 H         -1.91154397    1.41587698    0.86585701
 H         -3.30511689   -0.28498200   -0.08033100
 O         -2.67259407   -1.68521905   -1.40636003
 H         -2.43768311    0.37943801   -1.48278201
 H         -1.91597402   -1.83979797   -1.98534298
 H          0.33204499    0.17647700    2.01143289
 H          0.31386900    2.97981095    1.35267305
 C          1.53595901   -2.32327604    0.87127602
 H          0.55679798   -2.76568699    0.67242700
 H          1.86343002   -2.59223008    1.87479997
 H          2.25882292   -2.69003391    0.13526000
 H          2.72430897    1.45090902   -1.68585396
