27
wb97x-d4 ma-def2-tzvp(-f) cpcm(dmso) E: -727.023622413914, G: -726.83112894
 C         -1.14214396   -0.54810601    0.14391200
 C         -0.94845700    0.90855801    0.59714001
 O         -0.09000300   -0.99509102   -0.72969800
 C         -2.43771100   -0.77572203   -0.61476099
 H         -1.16711295   -1.18251801    1.03766406
 C          1.19364095   -0.54919499   -0.35767299
 C          1.32783902    0.97424901   -0.46667901
 H          1.88383603   -1.03990698   -1.05092800
 O          1.50048900   -0.89988703    0.97160703
 C         -0.04244300    1.64651203   -0.37985501
 H          1.95414603    1.31965494    0.36245200
 O          1.96903205    1.26028502   -1.70600605
 O          0.08428100    3.02349496   -0.04518000
 H         -0.50190502    1.61212695   -1.36879599
 O         -0.43783501    1.00835001    1.92983902
 H         -1.91876197    1.40805495    0.62022001
 H         -2.50686002   -1.83569098   -0.88405299
 O         -2.55704808    0.04530500   -1.77139103
 H         -3.27762890   -0.52821702    0.03756100
 H         -1.85202503   -0.20653801   -2.38017607
 H          0.29865700    0.38164699    2.00778198
 H          0.32150799    3.06622910    0.89137399
 C          1.55773401   -2.31227303    1.18447006
 H          0.57755202   -2.77420497    1.04323101
 H          1.88753402   -2.46025395    2.21203899
 H          2.27764297   -2.76665211    0.49592000
 H          2.04604197    2.21979094   -1.78001404
