27
wb97x-d4 ma-def2-tzvp(-f) cpcm(dmso) E: -727.023670545594, G: -726.8309076099999
 C         -1.16503298   -0.54902101    0.07065800
 C         -1.01114905    0.88653398    0.59899700
 O         -0.06713600   -0.95240402   -0.76687598
 C         -2.41846299   -0.75277799   -0.76150900
 H         -1.22812498   -1.22184706    0.93400103
 C          1.18714404   -0.48135000   -0.33430201
 C          1.28841400    1.04988396   -0.42667201
 H          1.91792500   -0.95061302   -1.00165999
 O          1.44908404   -0.84227002    1.00261104
 C         -0.08789500    1.70180500   -0.29825601
 H          1.93517697    1.39656603    0.38517001
 O          1.82143998    1.45054603   -1.68495297
 O          0.01169200    3.04388309    0.15933600
 H         -0.52920300    1.74516296   -1.29503405
 O         -0.55432701    0.93032199    1.95368004
 H         -1.99177206    1.36582804    0.61018002
 H         -2.46166801   -1.79951894   -1.08306003
 O         -2.48715806    0.12052300   -1.88299596
 H         -3.29325700   -0.54368001   -0.14242400
 H         -1.74825096   -0.09523100   -2.46488905
 H          0.20350499    0.32739100    2.02193403
 H          0.18698400    3.00119305    1.10951900
 C          1.54488802   -2.25476098    1.20054996
 H          2.30785203   -2.67535996    0.53743201
 H          0.58740997   -2.74665093    1.01223099
 H          1.83639598   -2.40610099    2.23916698
 H          2.76552606    1.25194502   -1.69283700
