27
wb97x-d4 ma-def2-tzvp(-f) cpcm(dmso) E: -727.020959712912, G: -726.83085517
 C         -1.11347103   -0.40497801   -0.06881600
 C         -1.18073201    1.12546003   -0.22467200
 O          0.03504900   -0.92211097   -0.74121702
 C         -2.31050611   -1.12898898   -0.67019498
 H         -1.05669606   -0.63098401    1.00181603
 C          1.26119995   -0.53988802   -0.14572801
 C          1.23843706    0.92192799    0.31159499
 H          2.01089501   -0.67089999   -0.93419701
 O          1.58271503   -1.32995498    0.96516401
 C          0.21949400    1.67147696   -0.52802497
 H          0.94603199    0.96855998    1.36536598
 O          2.50467205    1.54534101    0.13018399
 O          0.21975400    3.06220889   -0.23711701
 H          0.44331700    1.51271796   -1.58887506
 O         -1.68013096    1.66466498    0.99362499
 H         -1.84958196    1.39984298   -1.05060005
 H         -2.35028601   -0.93223500   -1.74777901
 O         -3.53091598   -0.75898999   -0.03834800
 H         -2.18828797   -2.20286202   -0.51818401
 H         -3.77951193    0.12324100   -0.33724901
 H         -1.43452299    2.60042500    1.00004601
 H          1.14130294    3.32498789   -0.11059200
 C          1.89128697   -2.68076396    0.62336099
 H          2.21227503   -3.17407107    1.54043901
 H          2.70202994   -2.71356893   -0.11307300
 H          1.01436102   -3.19430995    0.22050500
 H          3.05182099    1.36374998    0.90256500
