27
wb97x-d4 ma-def2-tzvp(-f) cpcm(dmso) E: -727.022463416214, G: -726.83039035
 C         -1.06396401   -0.50419497   -0.14723700
 C         -0.92842197    0.91525000    0.42164201
 O          0.09769000   -0.91469902   -0.88562799
 C         -2.22610092   -0.62547702   -1.12861896
 H         -1.23277402   -1.19757700    0.68545997
 C          1.31883800   -0.49557200   -0.32123300
 C          1.45787704    1.03232098   -0.32995000
 H          2.09603906   -0.94875902   -0.94374400
 O          1.44952297   -0.92449600    1.01443803
 C          0.08197500    1.69276798   -0.41260999
 H          1.94907296    1.33729100    0.59985203
 O          2.27381301    1.38333297   -1.44331706
 O          0.14886799    3.06258512   -0.03533600
 H         -0.24016701    1.67821300   -1.45653498
 O         -0.57013100    0.94052303    1.80544305
 H         -1.89863205    1.41046798    0.36217701
 H         -2.15159512    0.15014800   -1.89435196
 O         -3.47950697   -0.44404101   -0.48181099
 H         -2.17081499   -1.60159802   -1.62034905
 H         -3.64145899   -1.20885599    0.08320500
 H          0.14454000    0.29724100    1.93431997
 H          0.26015201    3.08628607    0.92486298
 C          1.48191202   -2.34818292    1.14639497
 H          0.53062701   -2.79452205    0.84749901
 H          1.67275298   -2.56081510    2.19718194
 H          2.28789592   -2.76300597    0.53278399
 H          2.35199189    2.34537005   -1.45453894
