27
wb97x-d4 ma-def2-tzvp(-f) cpcm(dmso) E: -727.021870749254, G: -726.82837094
 C         -1.24569297   -0.50033700    0.03498900
 C         -0.93433499    0.83292401    0.72178000
 O         -0.08681300   -1.22079897   -0.43104100
 C         -2.23009205   -0.38977900   -1.11417603
 H         -1.72744095   -1.13039100    0.78995001
 C          1.17783999   -0.63107097   -0.26934499
 C          1.19633603    0.82443500   -0.72713798
 H          1.84619200   -1.22667694   -0.89831001
 O          1.63144004   -0.68294698    1.06974304
 C          0.10541000    1.67930102   -0.03851500
 H          2.17199206    1.24864805   -0.48728901
 O          1.06874597    0.85604501   -2.14257503
 O          0.66155201    2.65349102    0.83441901
 H         -0.41112000    2.22036004   -0.83211398
 O         -0.52584600    0.63493299    2.07689095
 H         -1.86770904    1.39537394    0.78753901
 H         -2.39527702   -1.39035201   -1.52461302
 O         -1.71619201    0.48114899   -2.12531209
 H         -3.17989397   -0.00420900   -0.72796202
 H         -2.26349306    0.39606601   -2.91393089
 H          0.27428299    0.07919100    2.04773808
 H          0.58499497    2.29105806    1.72985804
 C          1.87805605   -2.01604390    1.52819800
 H          0.95242202   -2.59643793    1.55659103
 H          2.28944612   -1.93121195    2.53340507
 H          2.60221505   -2.50972509    0.87260503
 H          0.14298099    0.63700700   -2.35138392
