27
wb97x-d4 ma-def2-tzvp(-f) cpcm(dmso) E: -727.021562685372, G: -726.82751165
 C         -1.24035203   -0.54743803   -0.03145400
 C         -0.97378302    0.78947401    0.66506100
 O         -0.05464800   -1.25107706   -0.45571801
 C         -2.17866111   -0.45998001   -1.22526002
 H         -1.73991799   -1.18583405    0.70566303
 C          1.19397295   -0.64169401   -0.25248501
 C          1.20262802    0.81172699   -0.71618700
 H          1.89295697   -1.22839105   -0.85611701
 O          1.60169601   -0.68194598    1.10142696
 C          0.08214100    1.65095997   -0.05729100
 H          2.16519690    1.25261199   -0.45462000
 O          1.10756505    0.83623499   -2.13409495
 O          0.60070699    2.62514305    0.83761102
 H         -0.41132599    2.19500804   -0.86471701
 O         -0.61117399    0.59839302    2.03391600
 H         -1.91683304    1.33938205    0.69725400
 H         -2.31155610   -1.46731699   -1.62570703
 O         -1.67000103    0.35211399   -2.29007292
 H         -3.15135098   -0.08709400   -0.89329898
 H         -2.09414697    1.21669197   -2.25295806
 H          0.19549200    0.05133600    2.03334308
 H          0.48918501    2.26138306    1.72901499
 C          1.85439801   -2.01012611    1.57120895
 H          2.22418189   -1.91732299    2.59176302
 H          2.61262608   -2.49085498    0.94520402
 H          0.93904102   -2.60725594    1.56374204
 H          0.19196200    0.59587097   -2.36522698
