27
wb97x-d4 ma-def2-tzvp(-f) cpcm(dmso) E: -727.028049766246, G: -726.83497505
 C         -0.91965699   -0.35614899   -0.23311000
 C         -0.93599802    1.17294204   -0.29892001
 O          0.24408700   -0.85440499   -0.90662402
 C         -2.11597490   -0.98339301   -0.93673003
 H         -0.91474998   -0.68114698    0.81376803
 C          1.46339595   -0.42093000   -0.33362201
 C          1.57417798    1.10060596   -0.41198701
 H          2.24188805   -0.89940500   -0.93715000
 O          1.58377004   -0.78799498    1.01423001
 C          0.36133701    1.76612198    0.25049299
 H          2.48438811    1.42228305    0.09738400
 O          1.69545996    1.50210404   -1.76866806
 O          0.39453301    1.64754403    1.67185199
 H          0.38386601    2.83591390    0.03110300
 O         -2.05961394    1.69637001    0.40462500
 H         -1.05630302    1.47633803   -1.34303498
 H         -2.18305111   -0.59024799   -1.95962906
 O         -3.32742190   -0.75925100   -0.22444600
 H         -1.96861899   -2.06410599   -0.99240100
 H         -3.33074903    0.17309999    0.03971700
 H         -1.81854904    1.70403504    1.34301603
 H          0.68950301    0.74980497    1.88961804
 C          1.60824800   -2.20231009    1.22257602
 H          2.40012693   -2.65678096    0.61857301
 H          0.64655602   -2.65263009    0.96421099
 H          1.81488204   -2.35853791    2.28040695
 H          1.04446900    1.02012503   -2.29524994
