27
wb97x-d4 ma-def2-tzvp(-f) cpcm(dmso) E: -727.028071501356, G: -726.83481598
 C         -0.92988300   -0.35010201   -0.20221400
 C         -0.93638700    1.17862594   -0.27704999
 O          0.20885900   -0.86099499   -0.90846300
 C         -2.15221095   -0.97250003   -0.86408699
 H         -0.89494503   -0.66915101    0.84595698
 C          1.44874203   -0.43337300   -0.37655601
 C          1.56814206    1.08709204   -0.46486700
 H          2.20435405   -0.91975099   -1.00239801
 O          1.60934699   -0.79566401    0.96845502
 C          0.38088700    1.76428795    0.23090699
 H          2.49571490    1.40386605    0.01536300
 O          1.65162802    1.48280704   -1.82605505
 O          0.45555300    1.65082502    1.65102994
 H          0.40479699    2.83307004    0.00681000
 O         -2.03503704    1.71557403    0.45524001
 H         -1.08406401    1.47651196   -1.31916595
 H         -2.24929404   -0.58456200   -1.88653505
 O         -3.33915496   -0.73610002   -0.11495400
 H         -2.01419997   -2.05449009   -0.91837901
 H         -3.32808590    0.19784100    0.14328700
 H         -1.76729798    1.72615397    1.38638997
 H          0.75185502    0.75231302    1.86378098
 C          1.63311398   -2.20929503    1.18155503
 H          1.86958599   -2.36259103    2.23351407
 H          2.40511608   -2.66970897    0.55665100
 H          0.66228700   -2.65591693    0.95273101
 H          0.98057997    1.00522995   -2.33094811
