27
wb97x-d4 ma-def2-tzvp(-f) cpcm(dmso) E: -727.028752346977, G: -726.83852701
 C         -1.27271998   -0.28935000    0.07213900
 C         -1.34449804    1.06028295   -0.65192902
 O         -0.06683100   -0.95870000   -0.30576000
 C         -2.41490412   -1.20738006   -0.31270900
 H         -1.28011203   -0.12980101    1.15835595
 C          1.09237397   -0.25697899    0.11882200
 C          1.16483700    1.06715405   -0.62926900
 C         -0.09264000    1.88704300   -0.36851701
 H          1.22604299    0.84049499   -1.70099103
 O          2.27584291    1.84575200   -0.21036300
 O         -0.16909200    2.29148006    0.99703598
 H         -0.08756100    2.77069402   -1.01659501
 O         -2.51435804    1.78178704   -0.29494101
 H         -1.40165901    0.87299401   -1.72783506
 H         -3.36326289   -0.72213697   -0.08231400
 O         -2.38352299   -2.42960596    0.41868201
 H         -2.37209392   -1.40131795   -1.39172304
 H         -1.52786696   -2.84338403    0.25139099
 H         -2.35295200    2.17483807    0.57349300
 H          0.62459201    2.80241799    1.19664896
 H          3.06601095    1.29636896   -0.28617001
 O          2.21678901   -1.00057900   -0.21380600
 H          1.04271698   -0.09468300    1.20536804
 C          2.43237591   -2.12492299    0.64178401
 H          3.37579799   -2.57611299    0.33687600
 H          1.62652004   -2.85568905    0.53676802
 H          2.50017595   -1.80066502    1.68556094
