27
wb97x-d4 ma-def2-tzvp(-f) cpcm(dmso) E: -727.028739754018, G: -726.83841909
 C         -1.22921002   -0.36711100    0.32060301
 C         -1.41721106    0.99801099   -0.35234901
 O         -0.06871900   -1.00124896   -0.22501200
 C         -2.39634109   -1.30917799    0.09252700
 H         -1.10367703   -0.22882700    1.40277195
 C          1.12111902   -0.27662900    0.05013900
 C          1.06394506    1.07193506   -0.65420502
 C         -0.16211100    1.85037601   -0.19717200
 H          0.98359102    0.88306499   -1.73196900
 O          2.20835710    1.85998905   -0.35996500
 O         -0.06702500    2.20129299    1.18218005
 H         -0.26116300    2.75751400   -0.80402601
 O         -2.55360198    1.67549706    0.16329400
 H         -1.59890699    0.83566099   -1.41645896
 H         -2.19899893   -2.24812889    0.62176800
 O         -2.64286399   -1.55527604   -1.28900695
 H         -3.30259705   -0.86190701    0.50164598
 H         -1.84856403   -1.95877600   -1.65929198
 H         -2.30516791    2.03577995    1.02523100
 H          0.73021603    2.73223591    1.29647505
 H          2.98968005    1.32638502   -0.55174297
 O          2.20476198   -0.97948098   -0.46027499
 H          1.22212505   -0.14578600    1.13739598
 C          2.57774305   -2.10890102    0.33218899
 H          2.80369711   -1.79568195    1.35681295
 H          3.46985412   -2.53385711   -0.12622900
 H          1.78106701   -2.85694909    0.34466800
