27
wb97x-d4 ma-def2-tzvp(-f) cpcm(dmso) E: -727.026712106751, G: -726.83559897
 C         -1.01922297   -0.34007600    0.20878901
 C         -1.15935194    0.99657398   -0.52412498
 O          0.11879600   -1.01803696   -0.30848199
 C         -2.20146608   -1.26863301   -0.01648500
 H         -0.89928198   -0.15783601    1.28459406
 C          1.33801401   -0.34044901   -0.01711600
 C          1.35210598    1.00932503   -0.73425502
 C          0.11389800    1.82035398   -0.36647400
 H          1.34480202    0.81089002   -1.80910003
 O          2.53422689    1.73968804   -0.44886601
 O          0.28227499    2.23642707    0.98802203
 H          0.05536700    2.70044589   -1.01776505
 O         -2.22630405    1.78867495   -0.01467800
 H         -1.30840003    0.78511202   -1.59149802
 H         -2.34635210   -1.42268801   -1.09091103
 O         -3.35590100   -0.65370703    0.56609601
 H         -1.99817300   -2.23393297    0.45716399
 H         -4.14195919   -1.10691905    0.24120501
 H         -2.95651793    1.18244696    0.19033100
 H         -0.55286503    2.63414788    1.26629305
 H          2.41530395    2.14777803    0.41927999
 O          2.38305092   -1.11289299   -0.49916601
 H          1.42136705   -0.20762300    1.07233298
 C          2.64181590   -2.27466989    0.29055399
 H          2.84213400   -1.99188101    1.32978904
 H          3.52396989   -2.75316906   -0.13343200
 H          1.79866600   -2.96935010    0.25790200
