27
wb97x-d4 ma-def2-tzvp(-f) cpcm(dmso) E: -727.025207972451, G: -726.8349492899999
 C         -1.37630498   -0.24630100    0.20619901
 C         -1.17338598    0.87471801   -0.81884098
 O         -0.17807700   -1.01916301    0.31702000
 C         -2.46844602   -1.21069503   -0.21043199
 H         -1.62135398    0.18763000    1.18438900
 C          0.91704601   -0.26139200    0.80157399
 C          1.25660396    0.81803101   -0.22656500
 C          0.04680100    1.71537900   -0.45566800
 H          1.50705099    0.33831999   -1.17966402
 O          2.32116389    1.64403403    0.22367300
 O         -0.28960600    2.44576693    0.72167200
 H          0.26500401    2.41139507   -1.27362800
 O         -2.33219600    1.68733895   -0.93274599
 H         -1.00461996    0.42274800   -1.80026805
 H         -3.40432000   -0.66644400   -0.33622599
 O         -2.69718289   -2.21151900    0.77675903
 H         -2.19603610   -1.66808498   -1.16997504
 H         -1.85932398   -2.66751695    0.92318398
 H         -2.34986711    2.26976204   -0.16129600
 H          0.48074001    2.96966600    0.97255200
 H          3.03366995    1.07516897    0.54100502
 O          1.98218703   -1.11895502    1.08089304
 H          0.65775698    0.20309100    1.75884604
 C          2.50950503   -1.84936595   -0.03388400
 H          1.71511602   -2.35469794   -0.58603400
 H          3.18706012   -2.59127593    0.38665900
 H          3.07101488   -1.19763899   -0.70919597
