27
wb97x-d4 ma-def2-tzvp(-f) cpcm(dmso) E: -727.024260880375, G: -726.83355707
 C         -1.23895097   -0.22529700    0.57335699
 C         -1.13866198    0.90490800   -0.45210600
 O         -0.09802600   -1.07397497    0.43632901
 C         -2.46331096   -1.10372698    0.39601201
 H         -1.26650906    0.20597000    1.58239198
 C          1.12541997   -0.41418001    0.74055600
 C          1.35186005    0.70967901   -0.27980801
 C          0.16663900    1.66772497   -0.26762301
 H          1.42461395    0.27400500   -1.27808797
 O          2.56582189    1.39766395   -0.02890500
 O          0.20374399    2.34862494    0.98682398
 H          0.28073800    2.39071894   -1.08263004
 O         -2.20092297    1.84248495   -0.30164400
 H         -1.14406204    0.47261301   -1.45750105
 H         -2.45716500   -1.87534404    1.17374897
 O         -2.53337407   -1.69535995   -0.89840299
 H         -3.36555791   -0.50198400    0.51929402
 H         -1.73968196   -2.23153400   -1.01611602
 H         -2.97730088    1.50955999   -0.76459002
 H         -0.47083101    3.03747392    0.97114098
 H          2.40170598    2.00251293    0.70730001
 O          2.13795900   -1.36801195    0.78645903
 H          1.07141304    0.00517000    1.75164497
 C          2.51001501   -1.94702303   -0.46750399
 H          3.10497904   -1.24913895   -1.06308198
 H          1.63232505   -2.26329207   -1.03619695
 H          3.11711907   -2.82024097   -0.23086099
