27
wb97x-d4 ma-def2-tzvp(-f) cpcm(dmso) E: -727.027314308029, G: -726.83716915
 C         -1.22164404   -0.35869700   -0.03675700
 C         -1.29547000    1.00885296   -0.73295897
 O          0.02022100   -0.98346603   -0.36002901
 C         -2.33413410   -1.27786696   -0.50428599
 H         -1.29328597   -0.21720999    1.05102003
 C          1.13357699   -0.25512701    0.13072801
 C          1.21167803    1.07562494   -0.60331303
 C         -0.07542400    1.86075795   -0.38971600
 H          1.32681096    0.86072201   -1.67297900
 O          2.28349590    1.87632406   -0.12736100
 O         -0.21879800    2.24775696    0.97599298
 H         -0.06591100    2.75188494   -1.02750695
 O         -2.49109006    1.69966197   -0.40034601
 H         -1.31172597    0.84491003   -1.81427205
 H         -3.28696299   -0.74678397   -0.42908600
 O         -2.37781906   -2.50667906    0.21703599
 H         -2.16314006   -1.54008996   -1.55124998
 H         -2.65493298   -2.31357408    1.12037301
 H         -2.35816407    2.09192705    0.47322500
 H          0.55768102    2.76768708    1.21613002
 H          3.08877206    1.34574497   -0.17191400
 O          2.29459810   -0.96698499   -0.14372300
 H          1.02200305   -0.10088900    1.21396804
 C          2.50227690   -2.07920408    0.72920102
 H          1.72135401   -2.83202291    0.59561002
 H          2.51615000   -1.74611902    1.77241504
 H          3.46988392   -2.50713897    0.46979901
