27
wb97x-d4 ma-def2-tzvp(-f) cpcm(dmso) E: -727.027152702781, G: -726.8333361699999
 C         -1.22292900   -0.33401099    0.74916899
 C         -1.38100302    1.05567396    0.12868400
 O          0.09804700   -0.53837597    1.28713906
 C         -1.71583700   -1.48055005   -0.13331001
 H         -1.86110997   -0.35668001    1.63594794
 C          1.19450796   -0.24384800    0.45789701
 C          1.12015605    1.16353703   -0.12597500
 C         -0.22465301    1.40546405   -0.81012702
 H          1.93280602    1.28475296   -0.84712303
 O          1.30876100    2.05204511    0.97910500
 O         -0.32489401    2.75396395   -1.25307906
 H         -0.28253400    0.77292001   -1.69550097
 O         -1.50738502    2.06155801    1.13812399
 H         -2.31908107    1.07803202   -0.43064901
 H         -1.44283104   -2.42320108    0.35611600
 O         -1.28148997   -1.46746194   -1.48657405
 H         -2.80632997   -1.41886699   -0.16266701
 H         -0.31083500   -1.47818601   -1.46903002
 H         -0.64482599    2.13427305    1.57576597
 H         -0.71739799    3.25894809   -0.52705097
 H          1.46326101    2.93499494    0.62122297
 O          1.33216906   -1.15166295   -0.61245000
 H          2.06720090   -0.31720701    1.11341202
 C          1.79248405   -2.44134212   -0.19098200
 H          1.08426094   -2.90233397    0.50178200
 H          2.77131510   -2.35000801    0.28872001
 H          1.87816894   -3.05242801   -1.08856702
