27
wb97x-d4 ma-def2-tzvp(-f) cpcm(dmso) E: -727.023866427757, G: -726.83320949
 C         -1.25346005   -0.40859199    0.51271099
 C         -1.26326704    0.77141201   -0.46572000
 O         -0.02251300   -1.12155604    0.37479600
 C         -2.39707899   -1.38338006    0.29133600
 H         -1.34147596   -0.02640600    1.53916800
 C          1.10040402   -0.33323899    0.73024100
 C          1.22103405    0.83860099   -0.24543400
 C         -0.05556700    1.66913104   -0.22641300
 H          1.35274398    0.44737801   -1.26061201
 O          2.29298496    1.70146596    0.11025500
 O         -0.24696299    2.30277801    1.03624296
 H         -0.00296700    2.42729402   -1.01628697
 O         -2.47435904    1.50836205   -0.37910801
 H         -1.20206904    0.38122600   -1.48427498
 H         -2.25239396   -2.23985600    0.95312500
 O         -2.46195698   -1.89798605   -1.03684902
 H         -3.33430696   -0.89080900    0.56344301
 H         -2.91455507   -1.25384295   -1.59233499
 H         -2.43496394    2.03497410    0.43026900
 H          0.54332399    2.82390594    1.22390103
 H          3.07734394    1.16428697    0.27693000
 O          2.23581600   -1.14528203    0.76506197
 H          0.98299402    0.04492500    1.75174797
 C          2.62619090   -1.73169601   -0.48306799
 H          1.77512205   -2.19465899   -0.98575801
 H          3.36267400   -2.49639010   -0.23938000
 H          3.08726501   -0.99204499   -1.14398706
