27
wb97x-d4 ma-def2-tzvp(-f) cpcm(dmso) E: -727.024882418493, G: -726.83295293
 C         -1.07702601   -0.32507300    0.70261598
 C         -1.23194003    1.06379604    0.09424100
 O          0.21149001   -0.50959402    1.30150294
 C         -1.44559300   -1.44401002   -0.27174601
 H         -1.77554905   -0.39501601    1.53960502
 C          1.33519101   -0.21639100    0.49480900
 C          1.27076900    1.19655299   -0.08520700
 C         -0.05057500    1.40444803   -0.81759799
 H          2.10352802    1.31731796   -0.78032798
 O          1.45461595    2.16996288    0.93758202
 O         -0.15598799    2.73162198   -1.32007802
 H         -0.07730000    0.73788899   -1.68182099
 O         -1.32309198    1.99566805    1.18205905
 H         -2.15898705    1.08688295   -0.48525000
 H         -0.98771799   -1.30371106   -1.25295198
 O         -2.87099695   -1.43284297   -0.37977701
 H         -1.09565198   -2.39357710    0.14443800
 H         -3.11987805   -2.02420497   -1.09843194
 H         -1.62664199    2.83952594    0.82566500
 H          0.26073399    3.31868792   -0.67482698
 H          0.63717097    2.19373012    1.46109998
 O          1.48121095   -1.10736597   -0.57699800
 H          2.18841195   -0.29257399    1.17713106
 C          1.92632997   -2.40226889   -0.17498800
 H          1.96819699   -3.01633406   -1.07404494
 H          1.23522305   -2.85457802    0.54083502
 H          2.92406201   -2.33854508    0.27246201
