27
wb97x-d4 ma-def2-tzvp(-f) cpcm(dmso) E: -727.024144975428, G: -726.8328213
 C         -1.23806906   -0.47439000    0.37315199
 C         -1.19644201    0.65680099   -0.66132897
 O          0.01646700   -1.15404499    0.36589500
 C         -2.30231309   -1.51682997    0.04985100
 H         -1.43216503   -0.05734700    1.36979198
 C          1.08636904   -0.31415701    0.77255100
 C          1.25837195    0.80624998   -0.25415000
 C         -0.03536900    1.60086405   -0.38266000
 H          1.48222005    0.36484700   -1.23199999
 O          2.27468896    1.71743405    0.13913800
 O         -0.34606400    2.29464412    0.82278103
 H          0.06125400    2.31532311   -1.20815098
 O         -2.43214107    1.36745298   -0.70447803
 H         -1.05682003    0.21062100   -1.64973104
 H         -2.16790295   -1.86233497   -0.98349398
 O         -3.61951804   -1.01680303    0.25250500
 H         -2.17469192   -2.37127590    0.71715802
 H         -3.66092610   -0.15558100   -0.18922000
 H         -2.43905306    1.97818696    0.04599300
 H          0.38980401    2.88680506    1.01962495
 H          3.06266093    1.21431994    0.37905499
 O          2.23282194   -1.08931196    0.94864398
 H          0.86921000    0.11401300    1.75702596
 C          2.73458004   -1.74447405   -0.22337601
 H          3.22891498   -1.03687203   -0.89513201
 H          1.93697703   -2.26405907   -0.75720602
 H          3.46713090   -2.47008109    0.12776300
