27
wb97x-d4 ma-def2-tzvp(-f) cpcm(dmso) E: -727.023032852741, G: -726.83266204
 C         -1.24856198   -0.30419901    0.31273901
 C         -1.08104205    0.82527101   -0.70318800
 O         -0.06866500   -1.10303104    0.31607601
 C         -2.41779399   -1.20718706   -0.03495800
 H         -1.40553296    0.12868600    1.31056499
 C          1.08439398   -0.39412701    0.75269598
 C          1.39689004    0.70086700   -0.27364200
 C          0.19256200    1.62319398   -0.41518000
 H          1.58353996    0.23399600   -1.24271202
 O          2.56631804    1.42609406    0.07086500
 O          0.07311700    2.34472799    0.80830503
 H          0.37372699    2.32342911   -1.24014497
 O         -2.21831989    1.68024504   -0.60868400
 H         -1.00655496    0.38823399   -1.70568705
 H         -3.30314302   -0.58962399   -0.20785300
 O         -2.67023492   -2.19073391    0.96496999
 H         -2.18749404   -1.75109899   -0.95451897
 H         -3.03560400   -1.74513602    1.73808503
 H         -2.27219510    2.20612907   -1.41562498
 H         -0.76197600    2.82882309    0.77369702
 H          2.33853793    2.01172996    0.80490601
 O          2.11417389   -1.30834401    0.95642900
 H          0.89094400    0.05424600    1.73367000
 C          2.65329003   -1.91760099   -0.21982500
 H          3.26296210   -2.75306797    0.12272900
 H          3.28524709   -1.21691406   -0.77240300
 H          1.86141598   -2.29460907   -0.87131399
