27
wb97x-d4 ma-def2-tzvp(-f) cpcm(dmso) E: -727.023895214279, G: -726.83245086
 C         -1.14804900   -0.31225201    0.43280399
 C         -1.03730202    0.80795097   -0.60583699
 O          0.02601800   -1.11461794    0.38222700
 C         -2.30778289   -1.25787795    0.16175500
 H         -1.26125300    0.12928300    1.43156600
 C          1.20001197   -0.39426801    0.74834400
 C          1.44989896    0.70171201   -0.29557100
 C          0.23534299    1.61693799   -0.38281801
 H          1.59587395    0.23554800   -1.27178705
 O          2.62684107    1.43677604   -0.00182200
 O          0.17347699    2.34462309    0.84210002
 H          0.36895299    2.31298494   -1.21947706
 O         -2.12389493    1.72329104   -0.52972198
 H         -0.98578799    0.34780201   -1.60174596
 H         -2.20667100   -1.67808902   -0.84437299
 O         -3.52254105   -0.50832897    0.27534199
 H         -2.28785300   -2.07261300    0.89198202
 H         -4.23822689   -1.02288306   -0.11427700
 H         -2.92593908    1.19785404   -0.37775701
 H         -0.66068900    2.83115411    0.84123099
 H          2.41542912    2.04260397    0.72081602
 O          2.24288511   -1.30239499    0.89664900
 H          1.05709696    0.05609400    1.73678696
 C          2.72643399   -1.90393102   -0.30791199
 H          3.33176899   -1.19929004   -0.88463199
 H          1.90475702   -2.27648711   -0.92413700
 H          3.35120296   -2.74158096    0.00026600
