27
wb97x-d4 ma-def2-tzvp(-f) cpcm(dmso) E: -727.024483886832, G: -726.83233345
 C         -1.26749098   -0.21777600    0.43240201
 C         -1.29650998    1.15286005   -0.24976900
 O         -0.07419700   -0.41205400    1.20539403
 C         -1.55812895   -1.35857606   -0.54241598
 H         -2.06602812   -0.21702100    1.18035197
 C          1.16128504   -0.15143400    0.57433498
 C          1.20688200    1.23779094   -0.06649800
 C          0.01160200    1.41863704   -0.99638498
 H          2.13555408    1.32953596   -0.63644397
 O          1.14242995    2.24874997    0.93963999
 O          0.00983600    2.69532204   -1.61558902
 H          0.10827100    0.68642902   -1.80054498
 O         -1.57853198    2.19686699    0.68157798
 H         -2.12126708    1.16712201   -0.96587300
 H         -2.49604702   -1.12424004   -1.05940700
 O         -1.65353096   -2.61849809    0.11625800
 H         -0.77029097   -1.46109498   -1.28644705
 H         -2.41669798   -2.59170794    0.70574200
 H         -0.79761100    2.29741693    1.24697196
 H         -0.22479700    3.34220290   -0.93765599
 H          1.94101000    2.20628500    1.47892702
 O          1.49087799   -1.07310998   -0.42751199
 H          1.89337003   -0.20742200    1.38947999
 C          1.74970496   -2.38479900    0.07332700
 H          2.10647798   -2.97850108   -0.76789302
 H          0.84096098   -2.83399296    0.47885501
 H          2.52286601   -2.34899092    0.84917200
