27
wb97x-d4 ma-def2-tzvp(-f) cpcm(dmso) E: -727.02353152666, G: -726.8321723399999
 C         -1.14365697   -0.32093400    0.61855799
 C         -1.23892295    1.09972405    0.05767700
 O          0.10724600   -0.55046600    1.28297305
 C         -1.47899306   -1.41094995   -0.40647000
 H         -1.88527501   -0.39649099    1.41864598
 C          1.28062296   -0.25228000    0.55610901
 C          1.27133501    1.16475904   -0.00884300
 C         -0.00713100    1.40796804   -0.79702801
 H          2.13972902    1.27681398   -0.66414201
 O          1.37968695    2.05707788    1.10262001
 O          0.03396900    2.75631690   -1.24827898
 H         -0.00594500    0.72525501   -1.65318799
 O         -1.42567301    2.04788494    1.10415101
 H         -2.13407493    1.15370595   -0.56761497
 H         -0.93038601   -1.28341806   -1.33823001
 O         -2.86390305   -1.36355197   -0.74635702
 H         -1.21229994   -2.38346410    0.01814300
 H         -3.37461209   -1.63153696    0.02695400
 H         -0.55864000    2.18640208    1.51443398
 H         -0.83178997    2.98976994   -1.60342896
 H          1.46693695    2.94952893    0.74379700
 O          1.49053800   -1.12395597   -0.52081698
 H          2.08839989   -0.34744900    1.28937304
 C          1.88056600   -2.43445706   -0.11214000
 H          1.11672604   -2.89702797    0.51786602
 H          2.82881689   -2.39511895    0.43473700
 H          2.00672889   -3.02410698   -1.01949894
