27
wb97x-d4 ma-def2-tzvp(-f) cpcm(dmso) E: -727.02744510913, G: -726.83702447
 C         -1.15397596   -0.45313099    0.29802999
 C         -1.38693905    0.92720503   -0.32654601
 O          0.01470600   -1.03220797   -0.28692001
 C         -2.31511211   -1.41000199    0.09315300
 H         -1.00602996   -0.34148401    1.38110602
 C          1.18403494   -0.28684899    0.01603500
 C          1.08768702    1.09011304   -0.62722898
 C         -0.16049600    1.81335402   -0.14017700
 H          1.01383698    0.94701499   -1.71246696
 O          2.20799708    1.89814103   -0.29599801
 O         -0.07346500    2.11722112    1.25056899
 H         -0.28935000    2.73844099   -0.71355599
 O         -2.54859400    1.54919696    0.20342600
 H         -1.55701697    0.80013400   -1.39813995
 H         -2.02249694   -2.39176011    0.47178200
 O         -2.67386007   -1.58789396   -1.27576804
 H         -3.16995406   -1.05590701    0.67527199
 H         -3.25844908   -0.86707902   -1.53452003
 H         -2.32495999    1.86924803    1.08767998
 H          0.72528899    2.64111900    1.38625395
 H          3.00486898    1.39360201   -0.50228697
 O          2.28639698   -0.93339300   -0.52981597
 H          1.28930104   -0.20188600    1.10771501
 C          2.69447589   -2.08678508    0.20856200
 H          2.91600490   -1.81465805    1.24592304
 H          3.59657788   -2.46466208   -0.27115899
 H          1.91952300   -2.85709310    0.18907499
