27
wb97x-d4 ma-def2-tzvp(-f) cpcm(dmso) E: -727.023962890304, G: -726.83196147
 C         -1.21023095   -0.26207101    0.50769103
 C         -1.24485302    1.13409805   -0.10581000
 O         -0.00751500   -0.50508302    1.24755597
 C         -1.52415895   -1.34518194   -0.52506500
 H         -1.99767494   -0.29635000    1.26651096
 C          1.22299898   -0.20147400    0.61901402
 C          1.25629306    1.23295796    0.08441100
 C          0.05484800    1.44707000   -0.83637899
 H          2.18180108    1.35668099   -0.48392200
 O          1.30895495    2.15529895    1.16109300
 O         -0.04958800    2.78372788   -1.31151295
 H          0.15207399    0.75085300   -1.67644405
 O         -1.46839404    2.07075906    0.95764500
 H         -2.07828999    1.18743205   -0.81370801
 H         -2.47171688   -1.08164096   -1.00898898
 O         -1.60637903   -2.63931394    0.06303500
 H         -0.75035000   -1.40274704   -1.28851497
 H         -2.36880898   -2.65307498    0.65372598
 H         -1.53978801    2.94598389    0.55415201
 H          0.80342603    3.05036592   -1.67428195
 H          0.40267500    2.25460005    1.49258900
 O          1.53536797   -1.05772698   -0.44540399
 H          1.96364605   -0.30686700    1.41927505
 C          1.80226004   -2.39770603   -0.03242800
 H          0.90128100   -2.87164307    0.36250201
 H          2.59035397   -2.41061997    0.72895598
 H          2.14176798   -2.93832994   -0.91569400
