27
wb97x-d4 ma-def2-tzvp(-f) cpcm(dmso) E: -727.022832335613, G: -726.83138894
 C         -1.15367103   -0.30675501    0.74968201
 C         -1.29305303    1.11344898    0.19820900
 O          0.13601001   -0.51785702    1.34092498
 C         -1.52806699   -1.39834094   -0.25262499
 H         -1.85018396   -0.39401299    1.58672297
 C          1.26212096   -0.22464500    0.54146302
 C          1.20620406    1.17847204   -0.05670300
 C         -0.13409600    1.41943896   -0.74671000
 H          2.02152705    1.27180505   -0.78109699
 O          1.40454304    2.09724689    1.01999295
 O         -0.23708101    2.77122998   -1.18698204
 H         -0.20427699    0.74071503   -1.60183501
 O         -1.39318800    2.05561709    1.26245999
 H         -2.23235989    1.17594004   -0.35443601
 H         -1.02813303   -1.26671898   -1.21413302
 O         -2.94702792   -1.33069694   -0.41472799
 H         -1.23127604   -2.36629796    0.16355100
 H         -3.19444108   -1.93572295   -1.12241697
 H         -0.50062299    2.16995192    1.62172902
 H          0.31567800    2.87007308   -1.97158599
 H          1.38425601    2.98484612    0.63803101
 O          1.42210805   -1.12201703   -0.52326900
 H          2.11085701   -0.29449001    1.23045003
 C          1.83461702   -2.42137194   -0.10149500
 H          2.81113601   -2.36791801    0.39197201
 H          1.91191101   -3.03527403   -0.99820501
 H          1.10650897   -2.86666703    0.58103102
