27
wb97x-d4 ma-def2-tzvp(-f) cpcm(dmso) E: -727.023338012801, G: -726.83115412
 C         -1.60986698   -0.03863300    0.46430901
 C         -1.36767995    1.24758506   -0.32355401
 O         -0.51903200   -0.32411900    1.35563600
 C         -1.95406103   -1.21589506   -0.45748499
 H         -2.45149803    0.12719400    1.13939595
 C          0.76369101   -0.37320200    0.79982001
 C          1.10383105    0.90065098    0.01496000
 C          0.00651800    1.21047795   -0.99897701
 H          2.05263090    0.75553298   -0.51016200
 O          1.20278096    2.01025009    0.90873402
 O          0.27034900    2.40822291   -1.71180499
 H          0.01096700    0.40874699   -1.73838103
 O         -1.50731301    2.40584111    0.49745399
 H         -2.13804102    1.33447802   -1.09422100
 H         -2.97455907   -1.06777894   -0.81785601
 O         -1.92866695   -2.45728588    0.23176201
 H         -1.29096305   -1.25416696   -1.32530701
 H         -1.00460100   -2.60423207    0.47660801
 H         -0.76294798    2.41248894    1.11783302
 H          0.13352500    3.14162588   -1.09795702
 H          1.96490002    1.88138199    1.48558497
 O          0.87503898   -1.51761103   -0.02737300
 H          1.44549501   -0.46804801    1.65273297
 C          2.17419910   -2.10823011   -0.00785000
 H          2.44241691   -2.41154194    1.00982702
 H          2.93149400   -1.41786504   -0.39206699
 H          2.13139510   -2.98586893   -0.65166098
