27
wb97x-d4 ma-def2-tzvp(-f) cpcm(dmso) E: -727.021129930752, G: -726.82994575
 C         -1.19442296   -0.22548901    0.19512600
 C         -1.23366499    1.07947898   -0.61984903
 O         -0.01668300   -0.96900803   -0.11558000
 C         -2.37846494   -1.11910999   -0.10836800
 H         -1.19641101    0.02365000    1.26406395
 C          1.16725004   -0.34186801    0.37033400
 C          1.16503203    1.17471099    0.09098800
 C          0.19417800    1.46059203   -1.04616594
 H          2.17718410    1.47501099   -0.19197200
 O          0.72597802    1.91549003    1.23001206
 O          0.25117299    2.80427504   -1.49085999
 H          0.48574099    0.83180302   -1.88948703
 O         -1.85545099    2.12962103    0.11689300
 H         -1.84602106    0.95298302   -1.51597297
 H         -3.30004501   -0.55603600    0.05280200
 O         -2.42847800   -2.25656390    0.74504602
 H         -2.33587909   -1.42354500   -1.16159904
 H         -1.60671997   -2.74678493    0.61943501
 H         -1.34763896    2.24064398    0.93423700
 H         -0.34162000    3.31322503   -0.92062497
 H          1.38000703    1.83171403    1.93359494
 O          2.25328588   -0.90370899   -0.28938299
 H          1.23534799   -0.52162302    1.45491695
 C          2.46070504   -2.28139400    0.02826600
 H          3.41438007   -2.56463408   -0.41571000
 H          1.66495395   -2.90566802   -0.38452300
 H          2.50628209   -2.41776490    1.11438096
