27
wb97x-d4 ma-def2-tzvp(-f) cpcm(dmso) E: -727.021337269873, G: -726.82984998
 C         -1.17732096   -0.24507500    0.21422400
 C         -1.21711695    1.09881794   -0.53343701
 O         -0.02090300   -0.98784697   -0.16596100
 C         -2.38490200   -1.10410798   -0.09788300
 H         -1.14439404   -0.05030600    1.29488504
 C          1.17313099   -0.40152901    0.34365401
 C          1.22529399    1.10954905    0.06150900
 C          0.19807900    1.46870506   -1.00644505
 H          2.22988105    1.36119294   -0.28677800
 O          0.94768697    1.79045498    1.28964698
 O          0.26776600    2.84352207   -1.35316396
 H          0.43087101    0.89079499   -1.90382397
 O         -1.77741003    2.12782693    0.27947700
 H         -1.87348795    1.03235102   -1.40455902
 H         -3.29176593   -0.53642201    0.12048200
 O         -2.42831206   -2.28389692    0.69583499
 H         -2.37894201   -1.35277998   -1.16649103
 H         -1.62020695   -2.78085709    0.51884699
 H         -1.23937595    2.17901206    1.08333302
 H         -0.37965101    3.30301404   -0.79889798
 H          1.21757901    2.71085191    1.18407094
 O          2.25232005   -1.00824296   -0.28595701
 H          1.20837605   -0.57151902    1.43045199
 C          2.40517306   -2.38698292    0.05898700
 H          2.42232704   -2.50595188    1.14792800
 H          3.35791993   -2.70993996   -0.35897201
 H          1.59738398   -2.99063706   -0.36096099
