27
wb97x-d4 ma-def2-tzvp(-f) cpcm(dmso) E: -727.022865642195, G: -726.8296705299999
 C         -1.26382804   -0.18947300    0.61748600
 C         -1.49163795    1.10196698   -0.20216399
 O          0.09316100   -0.30062199    1.09754705
 C         -1.73737705   -1.44833302   -0.09775300
 H         -1.84898305   -0.10756500    1.53578496
 C          1.15116096   -0.13529301    0.17682099
 C          0.89903802    1.00294006   -0.82527900
 C         -0.20477900    1.91384006   -0.30890700
 H          0.57070303    0.57198697   -1.77377903
 O          2.09929705    1.70603895   -1.10199296
 O          0.14583200    2.53267193    0.93069899
 H         -0.35271201    2.73448896   -1.01300597
 O         -2.55327106    1.88160896    0.33324501
 H         -1.79776204    0.83518499   -1.21527505
 H         -1.51216996   -2.31678009    0.53210002
 O         -1.20271301   -1.61699295   -1.40426803
 H         -2.82265496   -1.37798500   -0.20861900
 H         -0.24191800   -1.72720003   -1.30953801
 H         -2.21458697    2.32942009    1.12047505
 H          0.27103901    1.83527899    1.58983505
 H          2.30941296    2.24365807   -0.32649499
 O          1.42898703   -1.30856097   -0.55119699
 H          2.01711202    0.10861400    0.80085498
 C          1.96091294   -2.36379194    0.25762400
 H          2.85835195   -2.01927590    0.78071600
 H          2.21800709   -3.17736197   -0.41916201
 H          1.22137904   -2.70846701    0.98424500
