27
wb97x-d4 ma-def2-tzvp(-f) cpcm(dmso) E: -727.026805278602, G: -726.8368794099999
 C         -1.15879595   -0.24384201    0.15470700
 C         -1.21269202    1.10236299   -0.56845599
 O         -0.01025900   -0.95588100   -0.30597401
 C         -2.35824299   -1.12152505   -0.14136800
 H         -1.08342898   -0.07695300    1.23667800
 C          1.21138704   -0.32682401    0.06468700
 C          1.31015801    1.02202797   -0.64718300
 C          0.08233500    1.87493396   -0.33715901
 H          1.34644198    0.82391298   -1.72161996
 O          2.49837494    1.71463704   -0.30293500
 O          0.20289500    2.27205610    1.02934003
 H          0.09030700    2.76188111   -0.97974598
 O         -2.27816701    1.91665494   -0.08543000
 H         -1.32001996    0.92114502   -1.64399803
 H         -3.27233291   -0.61035901    0.16427900
 O         -2.30955791   -2.34572601    0.58478701
 H         -2.40722489   -1.31384003   -1.22057605
 H         -1.47135401   -2.77293706    0.36851299
 H         -3.07105207    1.73496497   -0.60108900
 H         -0.49317899    2.91341901    1.21353602
 H          2.33287406    2.15225410    0.54354203
 O          2.25767493   -1.13455904   -0.35487700
 H          1.23432004   -0.19924299    1.15776205
 C          2.42696309   -2.30291510    0.44905400
 H          1.56336904   -2.96770692    0.36473399
 H          2.57302594   -2.02496290    1.49862003
 H          3.31617904   -2.81297302    0.08017100
