27
wb97x-d4 ma-def2-tzvp(-f) cpcm(dmso) E: -727.020750614878, G: -726.82962521
 C         -1.21793997   -0.67283303    0.36899301
 C         -1.33984399    0.85795599    0.44391301
 O         -0.02728200   -1.07726705   -0.31729400
 C         -2.37655902   -1.33189702   -0.35518000
 H         -1.18935299   -1.05786300    1.39648104
 C          1.10266697   -0.33748800    0.11833400
 C          1.03686595    1.07593501   -0.45203301
 C         -0.43620101    1.51858997   -0.59437698
 H          1.50344896    1.07479405   -1.43997097
 O          1.72793806    1.98509204    0.40476200
 O         -0.53932703    2.93262911   -0.52008998
 H         -0.79119998    1.20817697   -1.57889104
 O         -0.98687297    1.26278698    1.76797104
 H         -2.37461901    1.15133405    0.23766001
 H         -2.22437406   -2.41686296   -0.35719100
 O         -2.54269791   -0.84615600   -1.68434501
 H         -3.30202794   -1.11190104    0.18037300
 H         -1.74873495   -1.08098805   -2.17988706
 H         -1.04287899    2.22631097    1.79687798
 H          0.24975801    3.23229599   -0.04195800
 H          2.57543206    2.20321488    0.00319100
 O          2.25523996   -0.95570499   -0.34911001
 H          1.10488200   -0.29566899    1.21753705
 C          2.57476807   -2.15770006    0.35395899
 H          3.52173901   -2.51584101   -0.04818900
 H          1.80306995   -2.91688991    0.20378301
 H          2.68410301   -1.95405698    1.42468095
