27
wb97x-d4 ma-def2-tzvp(-f) cpcm(dmso) E: -727.020808413188, G: -726.82926879
 C         -1.11010802   -0.34055400    0.46700400
 C         -1.29494095    1.04927301   -0.16945601
 O         -0.01048200   -1.01753402   -0.13899501
 C         -2.32925391   -1.23081803    0.31729400
 H         -0.91417998   -0.21178000    1.54069901
 C          1.23352802   -0.41871801    0.21058500
 C          1.21078205    1.10465896   -0.00222700
 C          0.00700400    1.48444605   -0.85774899
 H          2.13544703    1.39694095   -0.50569397
 O          1.14199197    1.72090304    1.28843701
 O         -0.01334300    2.87566304   -1.14192903
 H          0.09308900    0.95572799   -1.80997097
 O         -1.71378100    2.00953603    0.80031198
 H         -2.09363294    1.02106297   -0.91177201
 H         -2.15961695   -2.16872692    0.85703301
 O         -2.64986801   -1.48714304   -1.04643595
 H         -3.19177604   -0.72604102    0.75760198
 H         -1.90827298   -1.96566701   -1.43613195
 H         -1.02891695    2.03829098    1.48478496
 H         -0.56328303    3.29004908   -0.46147999
 H          1.37080705    2.65230298    1.18188703
 O          2.21918511   -0.96774000   -0.59915400
 H          1.43520498   -0.63365901    1.27096105
 C          2.47433209   -2.34667611   -0.32183701
 H          2.69665790   -2.48427010    0.74197900
 H          3.34219003   -2.62958002   -0.91648299
 H          1.62123597   -2.96994901   -0.59925902
