27
wb97x-d4 ma-def2-tzvp(-f) cpcm(dmso) E: -727.021891902882, G: -726.82892573
 C         -1.30493498   -0.23241600    0.53456497
 C         -1.46594501    1.08223605   -0.26437899
 O          0.00371200   -0.35516801    1.13458800
 C         -1.70153701   -1.47233403   -0.25630099
 H         -1.97167897   -0.17970400    1.39790297
 C          1.14046502   -0.12650900    0.33096299
 C          0.96836799    1.06827796   -0.60962802
 C         -0.20266800    1.93264103   -0.15595500
 H          0.72732300    0.69280303   -1.61032796
 O          2.21071005    1.75654101   -0.63011301
 O         -0.04840700    2.47134709    1.15522397
 H         -0.29357401    2.79535389   -0.81974101
 O         -2.61566210    1.80588400    0.15403900
 H         -1.62569499    0.84773397   -1.31811595
 H         -1.52108800   -2.35700703    0.36564499
 O         -1.05405700   -1.59759903   -1.51575804
 H         -2.77391195   -1.40894997   -0.45864901
 H         -0.10056500   -1.67257297   -1.34250998
 H         -2.39809108    2.22338796    0.99900103
 H          0.07813500    1.73330498    1.76735103
 H          2.19655395    2.38147497   -1.36496103
 O          1.49485505   -1.24911404   -0.44354901
 H          1.94318402    0.08361700    1.04430306
 C          1.98239100   -2.34512305    0.33839500
 H          2.30267000   -3.11286402   -0.36448500
 H          1.19665504   -2.74245095    0.98549801
 H          2.83278990   -2.02279091    0.94699800
