27
wb97x-d4 ma-def2-tzvp(-f) cpcm(dmso) E: -727.019930063062, G: -726.82851958
 C         -1.08110094   -0.38576600    0.80872703
 C         -1.28735697    1.01063299    0.22824401
 O          0.25862601   -0.61772901    1.27335894
 C         -1.65093696   -1.49843895   -0.06163700
 H         -1.67126906   -0.42310300    1.72791100
 C          1.35310102   -0.18389800    0.49229100
 C          1.20304096    1.27364898    0.05143300
 C         -0.13320400    1.43575299   -0.67001897
 H          2.02162910    1.50205004   -0.63592499
 O          1.35140097    2.13721395    1.16891801
 O         -0.39330399    2.78266001   -1.05800605
 H         -0.12429900    0.77777100   -1.54172099
 O         -1.41972995    1.91771305    1.33515894
 H         -2.21573091    1.01317596   -0.35168299
 H         -1.30890906   -2.45781112    0.34198901
 O         -1.29465699   -1.36466897   -1.43433595
 H         -2.74119496   -1.45182705    0.04384300
 H         -1.81220400   -2.00702810   -1.93184400
 H         -1.56100094    2.79814196    0.96198797
 H          0.34635600    3.09781408   -1.59101295
 H          0.49578100    2.15937591    1.62565696
 O          1.56802595   -0.95572001   -0.65442401
 H          2.20900798   -0.27301401    1.17152095
 C          1.90294695   -2.30944300   -0.36955500
 H          2.15543199   -2.78042507   -1.31928003
 H          1.06226099   -2.83913302    0.08525800
 H          2.76728892   -2.35794592    0.30314299
