27
wb97x-d4 ma-def2-tzvp(-f) cpcm(dmso) E: -727.01972647068, G: -726.82846137
 C         -1.16044998   -0.13525400    0.34366599
 C         -0.83720303    0.57399201   -0.96974897
 O         -0.00438900   -0.80857801    0.87520802
 C         -2.22192192   -1.20451903    0.16583300
 H         -1.50428903    0.60013098    1.08104801
 C          1.26140106   -0.27925700    0.55420500
 C          1.22148204    1.23510599    0.39398199
 C          0.28313801    1.62225401   -0.77179998
 H          2.22975707    1.60049903    0.19468300
 O          0.71793598    1.81568503    1.59686303
 O         -0.27819699    2.90731311   -0.53391701
 H          0.86296397    1.69318104   -1.69227195
 O         -1.99719501    1.18793404   -1.50724006
 H         -0.49669200   -0.17202599   -1.69061995
 H         -3.15127397   -0.74629700   -0.17156000
 O         -2.50917292   -1.87163603    1.39285100
 H         -1.88456404   -1.92331398   -0.59165698
 H         -1.67642999   -2.23357606    1.72041297
 H         -1.97388303    2.10630989   -1.19538295
 H         -0.28412601    3.02307105    0.43031499
 H          1.44999802    2.22023797    2.07404709
 O          1.77031803   -0.79114300   -0.65133202
 H          1.91397202   -0.56753498    1.38619304
 C          2.01411605   -2.19513202   -0.60796100
 H          1.07823300   -2.75324202   -0.52102602
 H          2.66648412   -2.44483900    0.23662300
 H          2.50998807   -2.45936608   -1.54140902
