27
wb97x-d4 ma-def2-tzvp(-f) cpcm(dmso) E: -727.019270569651, G: -726.82833088
 C         -0.95156699   -0.11390100    0.66756499
 C         -0.96628600    0.89068800   -0.49176601
 O          0.36423200   -0.36396500    1.17495596
 C         -1.62547803   -1.42656302    0.29013500
 H         -1.50566602    0.33676901    1.49488604
 C          1.43812799   -0.17909600    0.27783301
 C          1.47515905    1.22610605   -0.36219400
 C          0.11702400    1.92908204   -0.28325701
 H          1.73175597    1.09053802   -1.41426098
 O          2.48771405    2.02928710    0.21915799
 O          0.01654400    2.55315208    0.99766600
 H          0.05633100    2.69005609   -1.06650996
 O         -2.22536898    1.54749203   -0.57306403
 H         -0.75476599    0.37048900   -1.43532503
 H         -1.13657904   -1.86292899   -0.58502501
 O         -2.99494600   -1.12066996   -0.00366100
 H         -1.55775797   -2.12874508    1.12757695
 H         -3.38016701   -1.86427104   -0.47971299
 H         -2.89664602    0.84905899   -0.58369601
 H         -0.60823798    3.28283501    0.93038797
 H          2.06612992    2.51998091    0.94011301
 O          1.42525899   -1.12399399   -0.76389802
 H          2.33303308   -0.31240600    0.89375901
 C          1.71481597   -2.44757009   -0.31811500
 H          1.71739399   -3.08602905   -1.20106006
 H          0.96015000   -2.80605412    0.38663301
 H          2.69979596   -2.47934389    0.16087700
