27
wb97x-d4 ma-def2-tzvp(-f) cpcm(dmso) E: -727.020103056313, G: -726.82812444
 C         -1.00776100   -0.07691100    0.75846499
 C         -0.90923101    0.74415600   -0.52268702
 O          0.16082001   -0.89073497    0.94441301
 C         -2.19240689   -1.02727306    0.76997399
 H         -1.11146700    0.60557598    1.60992706
 C          1.38459802   -0.41169000    0.42608601
 C          1.44617903    1.10757101    0.40465501
 C          0.33562201    1.66430295   -0.51261699
 H          2.42481709    1.40549803    0.01485300
 O          1.29323196    1.56563699    1.73709702
 O          0.00413900    2.96344209   -0.03598100
 H          0.72642201    1.74236202   -1.53022397
 O         -2.09455109    1.53407097   -0.62269902
 H         -0.83816200    0.06543300   -1.37262201
 H         -2.20608902   -1.55500698    1.73036504
 O         -2.16291308   -1.95613003   -0.30898899
 H         -3.11556792   -0.45568201    0.67491800
 H         -1.34342098   -2.45903492   -0.22828400
 H         -2.33893490    1.60615301   -1.55241001
 H         -0.95743901    3.04682112   -0.14015900
 H          0.83209598    2.41598797    1.66788495
 O          1.60849404   -0.83865499   -0.89344198
 H          2.15611410   -0.82346600    1.08589005
 C          1.91304696   -2.22733593   -0.99597198
 H          1.05526102   -2.84502006   -0.71608901
 H          2.76541400   -2.48021698   -0.35550800
 H          2.17168999   -2.41985607   -2.03684306
