27
wb97x-d4 ma-def2-tzvp(-f) cpcm(dmso) E: -727.019563921486, G: -726.82812308
 C         -0.94571197   -0.13552800    0.62825698
 C         -0.95735800    0.85103101   -0.54552102
 O          0.37206900   -0.38054699    1.13713598
 C         -1.62410200   -1.45500898    0.26738000
 H         -1.49617398    0.32944500    1.45071900
 C          1.44520903   -0.19661900    0.23961700
 C          1.47974598    1.20670104   -0.40425101
 C          0.11573300    1.90121102   -0.34172100
 H          1.74856102    1.07007205   -1.45312500
 O          2.48071790    2.01822495    0.18586700
 O          0.00146300    2.53847003    0.93152201
 H          0.05461100    2.65335488   -1.13332403
 O         -2.22148991    1.49541497   -0.65013701
 H         -0.73262602    0.31942400   -1.47946501
 H         -1.14478302   -1.89828897   -0.60681701
 O         -2.99514198   -1.23359597   -0.08693300
 H         -1.54702902   -2.15411210    1.10511601
 H         -3.50478411   -1.13985097    0.72700602
 H         -2.88558602    0.79075599   -0.67257798
 H         -0.62034601    3.26912403    0.84924501
 H          2.04605508    2.51189804    0.89708799
 O          1.43267500   -1.14493597   -0.79945302
 H          2.34077096   -0.32687399    0.85532898
 C          1.72983599   -2.46582389   -0.35085800
 H          2.71859694   -2.49249506    0.12059300
 H          1.72768497   -3.10759091   -1.23140895
 H          0.98140299   -2.82385492    0.36071801
