27
wb97x-d4 ma-def2-tzvp(-f) cpcm(dmso) E: -727.019752036725, G: -726.82794651
 C         -1.13067806   -0.10295200    0.33642501
 C         -1.04972100    0.92953199   -0.80173099
 O          0.10272200   -0.20366900    1.06814396
 C         -1.63525295   -1.44442797   -0.17586200
 H         -1.84667003    0.27092499    1.07611203
 C          1.30610394   -0.09656500    0.32519400
 C          1.39232600    1.21683896   -0.48379099
 C          0.04674700    1.93972504   -0.50095099
 H          1.65910602    0.95710200   -1.50975096
 O          2.41723800    2.06686711    0.00509600
 O         -0.19559801    2.63503289    0.72401202
 H          0.05804500    2.70952010   -1.27426600
 O         -2.31142592    1.54720795   -1.00951898
 H         -0.80235201    0.43217501   -1.74467802
 H         -2.56742811   -1.26270700   -0.72379500
 O         -1.83443105   -2.39765811    0.86256599
 H         -0.91256797   -1.87924302   -0.86589003
 H         -2.55668807   -2.08972406    1.42248499
 H         -2.49277806    2.10812497   -0.24358800
 H         -0.20757200    1.98566198    1.44164598
 H          2.03985906    2.58183908    0.73200202
 O          1.48694503   -1.16344297   -0.56560999
 H          2.08994699   -0.10475400    1.08939600
 C          1.69176698   -2.41572690    0.08884300
 H          1.91539299   -3.14421010   -0.69000202
 H          0.79899800   -2.72779202    0.63618702
 H          2.53796697   -2.34768009    0.78132600
