27
wb97x-d4 ma-def2-tzvp(-f) cpcm(dmso) E: -727.018731998014, G: -726.82791751
 C         -1.10725904   -0.61940801    0.10537300
 C         -1.22693002    0.91059601    0.08249900
 O          0.15336500   -1.06125498   -0.40067601
 C         -2.16400409   -1.29425299   -0.76114899
 H         -1.21985495   -0.95358598    1.14546001
 C          1.22563899   -0.32133400    0.16394900
 C          1.23607600    1.10826802   -0.39263999
 C         -0.18367900    1.48114502   -0.86560100
 H          1.91716504    1.14204895   -1.24597204
 O          1.76325798    2.02054811    0.55920702
 O         -0.37951499    2.88756108   -0.93608302
 H         -0.33540201    1.03156900   -1.85290396
 O         -1.01982999    1.40964997    1.41119397
 H         -2.22842693    1.19077003   -0.25599599
 H         -2.14557290   -0.86967200   -1.76765394
 O         -3.47406197   -1.08264697   -0.24877299
 H         -1.93383098   -2.36195397   -0.83202899
 H         -3.56018591   -1.58260500    0.57181901
 H         -1.24897099    2.34766293    1.40216994
 H          0.47165999    3.31180811   -1.09618795
 H          1.13626206    2.05343795    1.29536200
 O          2.42203999   -0.94310099   -0.16292800
 H          1.09471798   -0.29250300    1.25754905
 C          2.64795804   -2.14929795    0.56935602
 H          3.64318490   -2.50005507    0.29876700
 H          1.90846503   -2.91077495    0.30971301
 H          2.60773301   -1.95261598    1.64617503
