27
wb97x-d4 ma-def2-tzvp(-f) cpcm(dmso) E: -727.027097116972, G: -726.83678939
 C         -1.09795201   -0.32456800    0.37274501
 C         -1.26531005    1.03501701   -0.30631199
 O          0.00743000   -0.99337399   -0.23682199
 C         -2.30620289   -1.23023701    0.22912300
 H         -0.90539300   -0.17544700    1.44301999
 C          1.24636602   -0.33368099   -0.00216100
 C          1.22439098    1.04671395   -0.65881401
 C          0.01710000    1.84674895   -0.17881700
 H          1.14742398    0.89627302   -1.73872197
 O          2.42486906    1.75957406   -0.41153899
 O          0.27932000    2.19339895    1.18210006
 H         -0.07054200    2.75839806   -0.77953798
 O         -2.30966711    1.79702902    0.29276499
 H         -1.46550405    0.87366599   -1.36996901
 H         -2.09303594   -2.18185401    0.72829300
 O         -2.67854095   -1.44619906   -1.12937701
 H         -3.16437292   -0.77075201    0.72275698
 H         -1.93972194   -1.88356304   -1.56948805
 H         -3.14995289    1.53330398   -0.09757200
 H         -0.40281299    2.81148696    1.46868598
 H          2.33528805    2.16333604    0.46280199
 O          2.25421000   -1.08746099   -0.58546102
 H          1.40561795   -0.24750400    1.08381999
 C          2.55863690   -2.28133392    0.13723600
 H          1.71256602   -2.97324800    0.12989201
 H          2.82543898   -2.04288006    1.17265499
 H          3.41035199   -2.74284410   -0.36130399
