27
wb97x-d4 ma-def2-tzvp(-f) cpcm(dmso) E: -727.018569668761, G: -726.8275532499999
 C         -1.10142696   -0.52199501    0.09343800
 C         -1.25184298    0.98478901   -0.21606700
 O          0.13926999   -1.03578305   -0.38590899
 C         -2.18969107   -1.36156905   -0.56202602
 H         -1.15136695   -0.65073901    1.18417597
 C          1.23745704   -0.37460101    0.22515801
 C          1.26701200    1.11362600   -0.15359101
 C          0.00130000    1.48448002   -0.93381202
 H          2.14628410    1.30807197   -0.77353501
 O          1.36296105    1.84873700    1.07036495
 O         -0.06230700    2.88497496   -1.16323304
 H          0.05727500    0.99888599   -1.91006398
 O         -1.51535594    1.76431596    0.95243597
 H         -2.11777806    1.14327002   -0.86069000
 H         -2.16097403   -1.21416795   -1.64445496
 O         -3.48490095   -0.96203202   -0.13000700
 H         -2.00886798   -2.42015505   -0.35038999
 H         -3.58446598   -1.20623696    0.79773802
 H         -0.70830202    1.77605796    1.48951304
 H         -0.53265202    3.27559805   -0.41389099
 H          1.54682803    2.76979089    0.84711701
 O          2.41237307   -0.97730201   -0.19963500
 H          1.12891805   -0.46438801    1.31807303
 C          2.59621191   -2.29214001    0.33099499
 H          1.86233306   -2.98886299   -0.08043600
 H          2.51246810   -2.27552605    1.42304897
 H          3.59924412   -2.60709906    0.04568400
