27
wb97x-d4 ma-def2-tzvp(-f) cpcm(dmso) E: -727.019465356969, G: -726.82750947
 C         -0.97010499   -0.25918800    0.62046498
 C         -0.97597301    0.71822500   -0.56301302
 O          0.34289199   -0.46834800    1.15822196
 C         -1.61996698   -1.59334695    0.26039001
 H         -1.55062497    0.19403200    1.42940295
 C          1.42527199   -0.21878700    0.28604501
 C          1.43896604    1.22412598   -0.25490001
 C          0.02425500    1.83143604   -0.32189399
 H          1.85321403    1.18583596   -1.26368999
 O          2.29369593    2.04794002    0.51706398
 O         -0.30257899    2.47356296    0.91526097
 H         -0.02510700    2.55896091   -1.13437295
 O         -2.29702091    1.21052098   -0.77534097
 H         -0.70123798    0.19699600   -1.48284805
 H         -1.16094697   -2.00122690   -0.64758998
 O         -3.03052902   -1.45556402    0.09414500
 H         -1.46106005   -2.30010104    1.07747602
 H         -3.18226600   -0.65809798   -0.43307099
 H         -2.52134991    1.77482295   -0.02235200
 H         -0.35163000    3.42328596    0.76563799
 H          1.75840902    2.38505602    1.25060594
 O          1.43148196   -1.09677804   -0.81094402
 H          2.31630492   -0.37642401    0.90199298
 C          1.75258601   -2.43927193   -0.45007500
 H          1.01940894   -2.85138893    0.24781901
 H          2.74852610   -2.48157907    0.00452100
 H          1.74538505   -3.02469707   -1.36895502
