27
wb97x-d4 ma-def2-tzvp(-f) cpcm(dmso) E: -727.01921471134, G: -726.8272210599999
 C         -1.17666996   -0.21934500    0.46835601
 C         -1.39598203    1.11864495   -0.27325800
 O          0.12208500   -0.28826901    1.07757604
 C         -1.46072102   -1.43630195   -0.41439000
 H         -1.86908698   -0.25077999    1.31264997
 C          1.23647702   -0.14736700    0.21089000
 C          1.01611602    0.94768202   -0.84360200
 C         -0.08241100    1.89446199   -0.38341600
 H          0.70032901    0.47815800   -1.77866995
 O          2.22971296    1.62424600   -1.12975705
 O          0.25558299    2.53880692    0.84806001
 H         -0.19538499    2.69999099   -1.11073506
 O         -2.40257812    1.91918099    0.33286700
 H         -1.74941504    0.90582401   -1.28465199
 H         -0.89654303   -1.39092803   -1.34636796
 O         -2.83774090   -1.46520102   -0.78219998
 H         -1.17189503   -2.34653091    0.12019500
 H         -3.36005402   -1.63252997    0.01167100
 H         -1.98267806    2.40778899    1.05445397
 H          0.35110101    1.85476899    1.52629006
 H          2.44097090    2.18089294   -0.36822101
 O          1.56358099   -1.33453000   -0.45154500
 H          2.05756593    0.14155900    0.87748802
 C          2.05415392   -2.35046506    0.42322901
 H          2.90842509   -1.97872400    0.99990499
 H          2.37203097   -3.18149710   -0.20540699
 H          1.27302694   -2.68953609    1.10858905
