27
wb97x-d4 ma-def2-tzvp(-f) cpcm(dmso) E: -727.017757221645, G: -726.82709635
 C         -1.26299202   -0.35120600    0.38821399
 C         -1.47949696    1.07866502   -0.15725900
 O         -0.02926000   -0.49107400    1.09839404
 C         -1.41244698   -1.42692304   -0.69129503
 H         -2.03192592   -0.53231198    1.14319801
 C          1.14820600   -0.15351000    0.39873499
 C          0.94935399    0.98187101   -0.60864300
 C         -0.17852600    1.88869202   -0.16101900
 H          0.67133600    0.54755700   -1.57601905
 O          2.13562202    1.75185299   -0.74875599
 O          0.03718600    2.39846396    1.15663803
 H         -0.27677000    2.72197604   -0.86201298
 O         -2.49156809    1.78219700    0.55035198
 H         -1.82614005    0.99933797   -1.18992996
 H         -0.75797802   -1.23384404   -1.54228306
 O         -2.74183893   -1.43981898   -1.20615005
 H         -1.14263797   -2.39809895   -0.26472399
 H         -3.33159089   -1.74270999   -0.50527900
 H         -2.05088711    2.21145606    1.29815197
 H          0.54115498    3.21579599    1.08392501
 H          2.81512403    1.18859696   -1.13863397
 O          1.68077004   -1.24041104   -0.31849599
 H          1.85764694    0.15861000    1.17203796
 C          2.19113803   -2.27543092    0.51833600
 H          2.64906311   -3.01640797   -0.13658901
 H          1.38991594   -2.74580598    1.09484303
 H          2.94754195   -1.87752104    1.20426702
