27
wb97x-d4 ma-def2-tzvp(-f) cpcm(dmso) E: -727.018092025514, G: -726.82700217
 C         -1.06246400   -0.43845701    0.29678500
 C         -1.26192796    0.90967000   -0.42566299
 O          0.13635200   -1.06355798   -0.15228599
 C         -2.18345904   -1.43539798    0.03184300
 H         -1.00271297   -0.24863601    1.37668002
 C          1.30718398   -0.37241101    0.27268401
 C          1.18281806    1.14909697    0.05910600
 C          0.08827000    1.41012394   -0.96541899
 H          2.14121699    1.52685404   -0.30619299
 O          0.81467998    1.81533396    1.26761198
 O          0.00726800    2.77268004   -1.34584904
 H          0.33815101    0.84040600   -1.86256397
 O         -1.86613095    1.88267696    0.42455900
 H         -1.95063400    0.79503602   -1.26684999
 H         -2.23454595   -1.64740503   -1.04266500
 O         -3.43669605   -0.97340602    0.52288902
 H         -1.96367502   -2.36606312    0.55761403
 H         -3.73820090   -0.24480700   -0.03202100
 H         -1.28847206    1.98129702    1.19562399
 H         -0.57474601    3.20551610   -0.70550001
 H          1.53513205    1.73406696    1.90361595
 O          2.37721300   -0.83433002   -0.48355401
 H          1.46712196   -0.58666402    1.34131396
 C          2.71648407   -2.19597197   -0.21304999
 H          2.86662102   -2.34247494    0.86220902
 H          3.64694405   -2.39802408   -0.74253798
 H          1.93820798   -2.87515402   -0.56838101
