27
wb97x-d4 ma-def2-tzvp(-f) cpcm(dmso) E: -727.018048927479, G: -726.82681546
 C         -1.34072399   -0.01429400    0.73024398
 C         -1.05440700    0.84933102   -0.50206000
 O         -0.12945400   -0.46482599    1.37531197
 C         -2.25518799   -1.19879103    0.45536900
 H         -1.83922803    0.62332797    1.46375096
 C          1.04224706   -0.48249400    0.61792499
 C          1.38272202    0.88031203   -0.02747400
 C          0.13116901    1.75151801   -0.21543100
 H          1.80703700    0.67971599   -1.01315403
 O          2.36396003    1.57152700    0.72456598
 O         -0.06716700    2.50395012    0.98343003
 H          0.28672799    2.43579006   -1.05295300
 O         -2.18638396    1.65986705   -0.80277997
 H         -0.80388802    0.22240400   -1.36267698
 H         -2.36293411   -1.76520801    1.38850498
 O         -1.81519198   -2.04493999   -0.59912997
 H         -3.24303794   -0.82296002    0.17497700
 H         -0.85188401   -2.14170694   -0.51761901
 H         -2.81350708    1.13551104   -1.31307006
 H         -0.48624200    3.33991504    0.75361300
 H          1.88063395    2.17566991    1.30858397
 O          0.91738403   -1.49681795   -0.37233001
 H          1.84299505   -0.75405997    1.31259501
 C          2.16417003   -2.04696012   -0.79102498
 H          1.93727803   -2.82549405   -1.51833904
 H          2.69581604   -2.48150396    0.06212500
 H          2.79709601   -1.28878295   -1.26295304
