27
wb97x-d4 ma-def2-tzvp(-f) cpcm(dmso) E: -727.017021173949, G: -726.82680407
 C         -1.25120902   -0.30104601    0.54780102
 C         -1.48092496    1.12130904   -0.01294900
 O          0.03243800   -0.44613999    1.15856302
 C         -1.50858295   -1.39768100   -0.48339501
 H         -1.96280599   -0.44926101    1.36240101
 C          1.15449500   -0.16227099    0.35131699
 C          0.88982099    0.92846799   -0.68944502
 C         -0.16251101    1.88847995   -0.17501301
 H          0.50421602    0.46004900   -1.60200906
 O          2.07745004    1.65065598   -0.98442000
 O          0.19755600    2.43765903    1.09425294
 H         -0.30506799    2.69821000   -0.89545798
 O         -2.38592100    1.87560594    0.78062302
 H         -1.93883801    1.02765703   -0.99988103
 H         -0.93937999   -1.22744906   -1.40165901
 O         -2.91006899   -1.38000298   -0.75924498
 H         -1.20434403   -2.35971594   -0.05840100
 H         -3.06829190   -1.92095196   -1.54042697
 H         -1.85147202    2.30936003    1.46178901
 H          0.68652201    3.25323105    0.94333303
 H          2.70102811    1.04408801   -1.40196598
 O          1.61300600   -1.29179096   -0.34999499
 H          1.92801297    0.17442100    1.04917002
 C          2.18243408   -2.28733397    0.49732101
 H          2.99292707   -1.86105895    1.09937406
 H          2.58254600   -3.06600690   -0.15156400
 H          1.42696500   -2.71848392    1.15988195
