27
wb97x-d4 ma-def2-tzvp(-f) cpcm(dmso) E: -727.019782982925, G: -726.8267738
 C         -0.93736702   -0.24598600    0.61892903
 C         -0.86797202    0.48605299   -0.72258598
 O          0.35136700   -0.74432498    1.03012395
 C         -1.86695397   -1.45495498    0.57266903
 H         -1.30626798    0.44957200    1.38433504
 C          1.49519897   -0.20054500    0.39695400
 C          1.34951198    1.30543196    0.24245000
 C          0.15803300    1.63553596   -0.69361699
 H          2.26914692    1.72399998   -0.16587800
 O          1.16336703    1.89986801    1.52512598
 O         -0.46777099    2.84289289   -0.27828199
 H          0.52858698    1.79660404   -1.70683002
 O         -2.15651798    0.97860199   -1.07613504
 H         -0.57856703   -0.22659400   -1.49472404
 H         -1.59285796   -2.08383107   -0.28461701
 O         -3.23823810   -1.07926702    0.51579702
 H         -1.72932398   -2.03943110    1.48468494
 H         -3.30651999   -0.38752800   -0.15955400
 H         -2.21318698    1.87087297   -0.69867700
 H         -0.25866100    2.94662499    0.66431499
 H          0.74106199    1.25843501    2.11213112
 O          1.73154104   -0.73002499   -0.87502599
 H          2.32271099   -0.44726500    1.07119799
 C          2.03958702   -2.12403488   -0.85865003
 H          2.32947397   -2.39373899   -1.87342000
 H          1.16980004   -2.71310711   -0.55712998
 H          2.87081504   -2.32385707   -0.17358699
