27
wb97x-d4 ma-def2-tzvp(-f) cpcm(dmso) E: -727.019452600133, G: -726.82668481
 C         -0.93364000   -0.20445500    0.52533799
 C         -0.71108598    0.59241301   -0.75845498
 O          0.24731199   -0.91708398    0.90288299
 C         -2.01685309   -1.26778805    0.36760700
 H         -1.21870804    0.48353100    1.33069205
 C          1.49162495   -0.35917899    0.53245002
 C          1.45048296    1.16055799    0.47063500
 C          0.42097601    1.62560403   -0.58694100
 H          2.44648504    1.51861501    0.19197600
 O          1.10934198    1.63262296    1.76267302
 O         -0.09483800    2.88053608   -0.15708300
 H          0.93115300    1.75488305   -1.54448295
 O         -1.88428700    1.30394900   -1.14191794
 H         -0.42203200   -0.10681300   -1.54857194
 H         -1.80415106   -1.88313603   -0.50956899
 O         -3.30405807   -0.67694700    0.15323301
 H         -2.02759910   -1.90982604    1.25247002
 H         -3.62835908   -0.33824101    0.99702299
 H         -2.65327001    0.78145999   -0.85566801
 H         -1.03858101    2.87028694   -0.38495001
 H          0.57316101    2.42759490    1.61537004
 O          1.91996801   -0.80019200   -0.72991598
 H          2.19352889   -0.69803101    1.30279005
 C          2.18215895   -2.20058298   -0.77852601
 H          2.61838508   -2.40731192   -1.75531006
 H          1.26112103   -2.77739501   -0.66062403
 H          2.89176202   -2.48507094    0.00687400
