27
wb97x-d4 ma-def2-tzvp(-f) cpcm(dmso) E: -727.019196742607, G: -726.82662541
 C         -0.92594302   -0.10344700    0.77637100
 C         -0.99009401    0.58799601   -0.58616298
 O          0.37140301   -0.68477702    1.02939606
 C         -1.96512699   -1.20051098    0.94214302
 H         -1.12804604    0.64618099    1.55424595
 C          1.45959306   -0.22247501    0.25300899
 C          1.37923098    1.28557301    0.07569700
 C          0.10565300    1.66564202   -0.72011203
 H          2.26581001    1.64438999   -0.44696000
 O          1.37852299    1.91113806    1.35830903
 O         -0.38478500    2.92398500   -0.27362099
 H          0.35930899    1.77614200   -1.77531099
 O         -2.27423191    1.15822005   -0.78140599
 H         -0.84109902   -0.15449700   -1.36942601
 H         -1.78672504   -1.70313299    1.89532697
 O         -1.89961505   -2.20313597   -0.06852100
 H         -2.95735908   -0.74259502    0.97431499
 H         -2.37565899   -1.88636303   -0.84396398
 H         -2.21467900    2.06411099   -0.44051901
 H         -0.05877900    3.03522801    0.63415903
 H          0.99135500    1.30228400    2.00159597
 O          1.51861095   -0.79650998   -1.02127302
 H          2.34801197   -0.49781999    0.83226901
 C          1.84206998   -2.18701410   -0.99411201
 H          2.79537606   -2.34648204   -0.47825801
 H          1.93016601   -2.51064205   -2.03058410
 H          1.05703104   -2.76148891   -0.49660799
