27
wb97x-d4 ma-def2-tzvp(-f) cpcm(dmso) E: -727.018869180301, G: -726.82638821
 C         -0.97868901   -0.17027400    0.63208598
 C         -1.06280196    0.77985299   -0.57095098
 O          0.36097300   -0.27445400    1.13766098
 C         -1.58296895   -1.54040098    0.33479401
 H         -1.55815399    0.26964900    1.45091903
 C          1.41194797   -0.13055800    0.19402499
 C          1.36506605    1.22248995   -0.55045998
 C         -0.01713400    1.87303305   -0.43318501
 H          1.56511605    1.01880896   -1.60408199
 O          2.37577295    2.10396695   -0.09226000
 O         -0.15447401    2.60364389    0.78690398
 H         -0.14366999    2.61081195   -1.22687399
 O         -2.38833499    1.27907598   -0.71471900
 H         -0.85473299    0.23133200   -1.49389398
 H         -1.14755702   -1.95686400   -0.58002102
 O         -3.00331903   -1.45565903    0.22785200
 H         -1.36560094   -2.21582794    1.16445005
 H         -3.21246195   -0.69936103   -0.33759999
 H         -2.57759595    1.85050905    0.04175000
 H         -0.06860000    1.99064398    1.53003097
 H          1.98743498    2.64200807    0.61214203
 O          1.40210199   -1.15291703   -0.76410103
 H          2.32281709   -0.18040501    0.79830700
 C          1.76025605   -2.42718005   -0.22784901
 H          2.75806403   -2.38133001    0.22172500
 H          1.76594698   -3.12990093   -1.06035495
 H          1.04059899   -2.76069498    0.52370399
