27
wb97x-d4 ma-def2-tzvp(-f) cpcm(dmso) E: -727.01720447376, G: -726.82614469
 C         -0.96764398   -0.41524401    0.19408900
 C         -1.12108195    1.01029301   -0.37510401
 O          0.22798599   -1.02176094   -0.27326900
 C         -2.12878394   -1.30915904   -0.19256900
 H         -0.93575698   -0.33541301    1.29033601
 C          1.37197399   -0.38596001    0.29552200
 C          1.34737206    1.14591706    0.07996200
 C          0.23036700    1.49708605   -0.90108901
 H          2.30736494    1.43857503   -0.34747601
 O          1.23302901    1.84997702    1.31286097
 O          0.20009600    2.87784195   -1.22063196
 H          0.43658000    0.96687502   -1.83234298
 O         -1.53576899    1.92599297    0.64491802
 H         -1.85088098    1.02381301   -1.18967402
 H         -2.17822194   -1.39621902   -1.28380799
 O         -3.30151606   -0.67908502    0.32246900
 H         -1.99269700   -2.30597401    0.23875900
 H         -4.07325077   -1.10505700   -0.06588300
 H         -2.42626810    1.67821503    0.92276198
 H         -0.18879300    3.34136391   -0.46751499
 H          0.29957899    1.87153804    1.57044494
 O          2.50221896   -0.90739101   -0.31862801
 H          1.38081503   -0.59921801    1.37588298
 C          2.73513389   -2.28185105   -0.00282200
 H          1.98019898   -2.92531610   -0.46017700
 H          2.72980809   -2.42741299    1.08297706
 H          3.71813798   -2.53242612   -0.39999399
