27
wb97x-d4 ma-def2-tzvp(-f) cpcm(dmso) E: -727.018385640964, G: -726.82608024
 C         -1.25763500   -0.32549199    0.57515901
 C         -1.13915002    0.87890500   -0.37692401
 O         -0.13255100   -1.19198096    0.44155201
 C         -2.49795103   -1.16087401    0.31685099
 H         -1.30703199    0.04905500    1.60697496
 C          1.06418097   -0.60127598    0.93090802
 C          1.25592601    0.82789302    0.37609300
 C          0.32288301    1.07078195   -0.80515999
 H          2.29673791    0.95590401    0.06752500
 O          0.96414000    1.73353195    1.44809997
 O          0.52076799    2.36137795   -1.36355197
 H          0.55348003    0.33911800   -1.58250594
 O         -1.66243303    2.06143594    0.22777100
 H         -1.74788904    0.71815902   -1.26753998
 H         -2.57011104   -1.94694901    1.07612598
 O         -2.50626111   -1.72460103   -0.99109399
 H         -3.37881589   -0.51980001    0.39255601
 H         -1.75015295   -2.32058907   -1.05597901
 H         -1.15805697    2.21220589    1.04098105
 H         -0.13720401    2.94384098   -0.95712000
 H          1.29669797    2.60345793    1.19507003
 O          2.11660600   -1.47058499    0.65415800
 H          1.01372504   -0.53610498    2.02342105
 C          2.39407802   -1.68705702   -0.73197001
 H          3.17584491   -2.44461107   -0.76946199
 H          2.76037002   -0.77494800   -1.21261799
 H          1.50980699   -2.05079603   -1.25932097
