27
wb97x-d4 ma-def2-tzvp(-f) cpcm(dmso) E: -727.018585541925, G: -726.82602485
 C         -1.30601597   -0.24511001    0.31384200
 C         -1.06312597    0.87053698   -0.71966100
 O         -0.18597500   -1.12784398    0.38465101
 C         -2.51267290   -1.08948696   -0.03929600
 H         -1.46334600    0.21445900    1.29864097
 C          0.95233101   -0.50499398    0.96654499
 C          1.20291996    0.89589298    0.35103101
 C          0.44644099    1.02465606   -0.96506202
 H          2.27540493    1.02980900    0.18612000
 O          0.71461600    1.92077005    1.22025597
 O          0.73451799    2.23468900   -1.64330006
 H          0.76921803    0.21314400   -1.61831903
 O         -1.65288401    2.09879708   -0.30110699
 H         -1.54796600    0.62646103   -1.66804695
 H         -3.38077497   -0.43745399   -0.15603000
 O         -2.83094406   -2.03083396    0.97872001
 H         -2.32677388   -1.59605002   -0.99475902
 H         -2.05950594   -2.59823799    1.09786403
 H         -1.25585902    2.32878304    0.55168301
 H          0.14816900    2.90988493   -1.27487302
 H          1.25047195    1.93497896    2.02160597
 O          2.02865601   -1.38325000    0.85686600
 H          0.78279698   -0.38266701    2.04293489
 C          2.47284293   -1.66233003   -0.47388500
 H          3.24093699   -2.42919493   -0.38229099
 H          2.91088891   -0.77583301   -0.94194001
 H          1.65563405   -2.03957701   -1.09219003
