27
wb97x-d4 ma-def2-tzvp(-f) cpcm(dmso) E: -727.027193943685, G: -726.83585941
 C         -1.04663599   -0.37672600    0.08429100
 C         -1.16004598    0.97956997   -0.61533600
 O          0.14203499   -1.01651704   -0.36436599
 C         -2.19317389   -1.31875896   -0.26387000
 H         -1.01110005   -0.22752200    1.17192996
 C          1.32304096   -0.32267299    0.02981000
 C          1.35725796    1.04639900   -0.64988798
 C          0.08065800    1.82245302   -0.34291899
 H          1.42451501    0.87680399   -1.72752297
 O          2.50298691    1.79110098   -0.27020201
 O          0.14774001    2.19740295    1.03184998
 H          0.04857800    2.72204089   -0.96897399
 O         -2.27866292    1.73328400   -0.16144399
 H         -1.22740495    0.79968297   -1.69676399
 H         -2.24773312   -1.44304395   -1.34782302
 O         -3.45430994   -0.78446603    0.15181901
 H         -2.01507902   -2.29621696    0.19260301
 H         -3.54113293   -0.91728401    1.10392404
 H         -3.01451492    1.10980499   -0.05199700
 H         -0.70731199    2.58346891    1.26131499
 H          2.32529807    2.16520691    0.60321897
 O          2.41669798   -1.05999994   -0.39526799
 H          1.32608700   -0.21820000    1.12550902
 C          2.64595008   -2.23648596    0.38098699
 H          1.83299303   -2.95613694    0.25522700
 H          2.74582601   -1.97987497    1.44134104
 H          3.57744098   -2.67331600    0.02254800
