27
wb97x-d4 ma-def2-tzvp(-f) cpcm(dmso) E: -727.018185573213, G: -726.8259610499999
 C         -0.97770703   -0.19406299    0.68385601
 C         -1.07852697    0.81285298   -0.46333301
 O          0.36907399   -0.30833200    1.16551697
 C         -1.57306194   -1.55439496    0.32770601
 H         -1.55180204    0.20465501    1.52606702
 C          1.40737498   -0.12583600    0.21315500
 C          1.33912802    1.25017905   -0.48851499
 C         -0.03225300    1.90274704   -0.28324199
 H          1.49213505    1.08061194   -1.55587697
 O          2.37428808    2.11091805   -0.04565900
 O         -0.10593300    2.55993199    0.98017299
 H         -0.17725900    2.68743396   -1.02866805
 O         -2.42061210    1.29330206   -0.46352899
 H         -0.86668700    0.31152800   -1.41555798
 H         -1.15434206   -1.91737795   -0.61720002
 O         -2.99642301   -1.48360395    0.25742900
 H         -1.32780194   -2.26841998    1.11623800
 H         -3.22590399   -0.69265002   -0.25016299
 H         -2.57811809    1.75253904   -1.29757202
 H         -0.02478200    1.89659297    1.67882705
 H          2.02199292    2.61039209    0.70512998
 O          1.39668095   -1.11974597   -0.77413398
 H          2.32517195   -0.18511100    0.80604202
 C          1.76801395   -2.40642095   -0.27841601
 H          1.05741000   -2.76619101    0.46954700
 H          2.76964998   -2.36697006    0.16322900
 H          1.77029204   -3.08456707   -1.13105094
