27
wb97x-d4 ma-def2-tzvp(-f) cpcm(dmso) E: -727.016248106968, G: -726.8259226
 C         -1.42186296   -0.02364800    0.42860001
 C         -0.98138601    0.85672498   -0.73861200
 O         -0.32918000   -0.40020299    1.28463602
 C         -2.16781592   -1.26363695   -0.04206000
 H         -2.08242607    0.56904101    1.06517196
 C          0.93995303   -0.47572899    0.70149499
 C          1.38134301    0.84905398    0.03262400
 C          0.18174000    1.73892605   -0.31149501
 H          1.88934505    0.59213501   -0.89883798
 O          2.31287098    1.55294394    0.83765799
 O         -0.14463000    2.50675392    0.84649903
 H          0.45448500    2.41221690   -1.13031900
 O         -2.11868811    1.62718701   -1.11791396
 H         -0.65042597    0.23487499   -1.57865298
 H         -3.07220101   -0.95611501   -0.57059997
 O         -2.58102894   -2.06908607    1.05816102
 H         -1.53605604   -1.84001899   -0.72458100
 H         -1.78742504   -2.26222801    1.57337403
 H         -1.97113204    1.96232998   -2.01014709
 H         -0.65544301    3.27302504    0.56409699
 H          1.79811394    2.17088509    1.37703001
 O          0.94501400   -1.54359698   -0.22996999
 H          1.62882102   -0.69932801    1.52302694
 C          2.24363208   -2.08809710   -0.43844700
 H          2.13308907   -2.91284299   -1.14188802
 H          2.65985489   -2.46328497    0.50360399
 H          2.93144011   -1.34828603   -0.86245102
