27
wb97x-d4 ma-def2-tzvp(-f) cpcm(dmso) E: -727.017190006328, G: -726.82592213
 C         -1.41422403   -0.02650800    0.36515599
 C         -0.95327097    0.76508802   -0.86371398
 O         -0.33234900   -0.36064401    1.25510705
 C         -2.17473507   -1.28567195   -0.02252100
 H         -2.07124996    0.61559898    0.95756102
 C          0.94113898   -0.45762599    0.68248200
 C          1.39053297    0.85787702    0.01008600
 C          0.19001500    1.68962204   -0.48046800
 H          2.00434709    0.59613800   -0.85360497
 O          2.20480990    1.62669897    0.87848502
 O         -0.26596299    2.56022811    0.56164801
 H          0.48549101    2.28600192   -1.34583795
 O         -2.04671097    1.48042405   -1.42149901
 H         -0.60467100    0.08419900   -1.64404595
 H         -3.06971312   -1.00407195   -0.58067900
 O         -2.60981894   -2.00458288    1.12850499
 H         -1.54533195   -1.91816401   -0.65581900
 H         -1.82366300   -2.17457795    1.66283095
 H         -2.29071307    2.16880107   -0.78786898
 H         -0.09634900    3.47006297    0.29682899
 H          1.60074401    2.16765904    1.40817904
 O          0.94407398   -1.53076196   -0.24142000
 H          1.62150705   -0.67964000    1.51146698
 C          2.23301697   -2.10988808   -0.41542399
 H          2.61815310   -2.48648691    0.53904700
 H          2.94809508   -1.39153504   -0.83079797
 H          2.11683702   -2.93823910   -1.11368203
