27
wb97x-d4 ma-def2-tzvp(-f) cpcm(dmso) E: -727.01796031744, G: -726.82581997
 C         -1.44939995   -0.07845400    0.67558300
 C         -1.24311602    0.94350898   -0.44274300
 O         -0.21532200   -0.37585601    1.36564004
 C         -2.17890692   -1.34092605    0.23407300
 H         -2.07176208    0.39360300    1.44102299
 C          0.98220402   -0.39497799    0.63888001
 C          1.20549798    0.88112402   -0.21720199
 C         -0.01585400    1.79576802   -0.14713199
 H          1.34804404    0.57761401   -1.25625205
 O          2.38253808    1.56745100    0.17793500
 O         -0.07496800    2.47717810    1.10486698
 H          0.07867900    2.57981896   -0.90154397
 O         -2.44671011    1.69621503   -0.53235298
 H         -1.05791402    0.42508501   -1.38951194
 H         -2.21841598   -2.02589512    1.08970201
 O         -1.62495005   -1.98250604   -0.90505600
 H         -3.20256400   -1.06217206   -0.02731100
 H         -0.67153198   -2.08624005   -0.74730802
 H         -2.46454906    2.13099408   -1.39298403
 H         -0.20015800    1.82021403    1.80332303
 H          2.13577008    2.15315008    0.90794301
 O          1.00282001   -1.57483101   -0.14869300
 H          1.77615499   -0.45577300    1.39011705
 C          2.30950999   -1.93656099   -0.59267902
 H          2.20955396   -2.87757301   -1.13148904
 H          2.97658801   -2.07066393    0.26537701
 H          2.72875690   -1.17929399   -1.26220596
