27
wb97x-d4 ma-def2-tzvp(-f) cpcm(dmso) E: -727.018872477566, G: -726.82572533
 C         -1.54687095   -0.04976100    0.56974000
 C         -1.39316797    1.07347798   -0.47890699
 O         -0.34505001   -0.24666899    1.34956205
 C         -2.08203197   -1.34777498   -0.02082700
 H         -2.27165389    0.28530899    1.31474304
 C          0.88566101   -0.34911600    0.69160199
 C          1.04908001    0.68408102   -0.44808400
 C         -0.03450700    1.74864197   -0.35200399
 H          0.93849999    0.17425101   -1.40837204
 O          2.35046697    1.25003195   -0.44006500
 O          0.07371500    2.51702309    0.84842199
 H          0.09230300    2.46286702   -1.16755199
 O         -2.45476794    2.01456094   -0.38966501
 H         -1.45655096    0.64296198   -1.47992206
 H         -2.13057804   -2.10266900    0.77244502
 O         -1.34488201   -1.82895195   -1.13601601
 H         -3.09863591   -1.15493000   -0.37388101
 H         -0.44504499   -2.02081800   -0.82039797
 H         -2.29263306    2.56030393    0.39161101
 H         -0.04791700    1.91901505    1.59944201
 H          2.39192605    1.87780595    0.29400101
 O          1.03791296   -1.68867695    0.24445300
 H          1.64546001   -0.15285601    1.45652902
 C          2.36810994   -1.99692404   -0.17555700
 H          2.64026308   -1.44563901   -1.07995796
 H          2.38996792   -3.06597996   -0.38232499
 H          3.08092594   -1.75956404    0.62098402
