27
wb97x-d4 ma-def2-tzvp(-f) cpcm(dmso) E: -727.017561039894, G: -726.82567891
 C         -1.30231905   -0.30388001    0.30342099
 C         -1.05547094    0.95537001   -0.54212600
 O         -0.16047201   -1.15602398    0.31180501
 C         -2.46289396   -1.12255204   -0.22378001
 H         -1.51935601    0.01355200    1.33242404
 C          0.93535501   -0.56445903    0.99751800
 C          1.26009297    0.84512597    0.43292001
 C          0.44531900    1.10711396   -0.82843602
 H          2.32431102    0.89346403    0.19862799
 O          1.04555798    1.86734402    1.40605295
 O          0.73425502    2.38193488   -1.38352299
 H          0.71902400    0.36382699   -1.57963204
 O         -1.55752397    2.06030202    0.21574700
 H         -1.59267199    0.89663398   -1.49466705
 H         -3.35014200   -0.48834899   -0.27608201
 O         -2.78016305   -2.21716404    0.62668198
 H         -2.22275805   -1.47056794   -1.23635995
 H         -1.98710799   -2.76190710    0.70404500
 H         -1.55564499    2.83814812   -0.35626301
 H          0.86507797    2.99801207   -0.65052700
 H          0.09345200    2.04236197    1.46077597
 O          2.00495696   -1.45607305    0.94752502
 H          0.68475097   -0.45713499    2.05916810
 C          2.50128794   -1.75003803   -0.36169201
 H          1.72406805   -2.19538307   -0.98578203
 H          3.31260610   -2.46377206   -0.22483499
 H          2.89640903   -0.85588503   -0.85300797
