27
wb97x-d4 ma-def2-tzvp(-f) cpcm(dmso) E: -727.014775365304, G: -726.82541354
 C         -1.32396197   -0.35705501    0.56225300
 C         -1.54603899    1.07128406    0.00132800
 O          0.00400800   -0.60332799    1.04507399
 C         -1.81981802   -1.43703794   -0.38545099
 H         -1.93861306   -0.44152200    1.46083105
 C          1.12908399   -0.15404500    0.32531500
 C          0.82503200    0.98676902   -0.64000303
 C         -0.25267300    1.87825096   -0.05931100
 H          0.44707099    0.56040198   -1.57483006
 O          1.99195004    1.76259696   -0.88400400
 O          0.05695100    2.32134700    1.26277006
 H         -0.40299299    2.74425697   -0.71059698
 O         -2.54148102    1.77463496    0.73332697
 H         -1.92320204    0.98799598   -1.01855004
 H         -1.57065594   -2.41726804    0.03505900
 O         -1.24046504   -1.27979004   -1.67871702
 H         -2.91189194   -1.34880698   -0.44492501
 H         -1.59484804   -1.96982706   -2.24963999
 H         -2.10222101    2.14114809    1.51372504
 H          0.62837601    3.09374690    1.19677305
 H          2.65285993    1.18510103   -1.28526795
 O          1.73993099   -1.17551506   -0.42313501
 H          1.83473396    0.19389500    1.08832395
 C          2.34291101   -2.18148303    0.38511801
 H          1.58793604   -2.74705601    0.93844199
 H          3.05131102   -1.73533499    1.09301102
 H          2.87670803   -2.85335898   -0.28691900
