27
wb97x-d4 ma-def2-tzvp(-f) cpcm(dmso) E: -727.017047184991, G: -726.8253582
 C         -1.44557297    0.04298800    0.34768599
 C         -1.05498195    0.87650198   -0.88095802
 O         -0.33111700   -0.17412899    1.23716903
 C         -2.11332393   -1.26816201   -0.03768200
 H         -2.14977694    0.62662500    0.94758499
 C          0.93451101   -0.35186800    0.65416098
 C          1.34718597    0.83848000   -0.25006801
 C          0.15049499    1.74259305   -0.54866803
 H          1.71109104    0.43324700   -1.19632494
 O          2.41221690    1.58227897    0.32064399
 O         -0.11908300    2.63049197    0.53897601
 H          0.38293701    2.38807607   -1.39727795
 O         -2.16213608    1.64077699   -1.33566296
 H         -0.78151298    0.21941701   -1.71176505
 H         -3.02512288   -1.04069102   -0.59445202
 O         -2.50195003   -2.01817107    1.10820401
 H         -1.44680095   -1.85343099   -0.67670202
 H         -1.70220804   -2.18327403    1.62307799
 H         -2.33554006    2.32514906   -0.67557299
 H         -0.33216399    2.10170007    1.32058299
 H          2.01573491    2.27304912    0.87027299
 O          0.93361002   -1.57286298   -0.05659600
 H          1.63352001   -0.41328499    1.49505496
 C          2.24492311   -2.09945202   -0.23721100
 H          2.73397994   -2.25204396    0.73174798
 H          2.86619496   -1.43770003   -0.85024601
 H          2.13489199   -3.05630589   -0.74597400
