27
wb97x-d4 ma-def2-tzvp(-f) cpcm(dmso) E: -727.027202951056, G: -726.8356400499999
 C         -1.04355299   -0.36798200    0.12601300
 C         -1.17257595    0.96553302   -0.61347002
 O          0.12945300   -1.02696502   -0.33633199
 C         -2.20334601   -1.31540596   -0.15843999
 H         -0.97598302   -0.18431200    1.20681703
 C          1.32320094   -0.32637900    0.00360400
 C          1.34357405    1.02094698   -0.71831697
 C          0.07784200    1.81195605   -0.40345401
 H          1.38235104    0.81820399   -1.79165602
 O          2.50101495    1.77284098   -0.39159301
 O          0.18244500    2.23255897    0.95587200
 H          0.03201300    2.69038892   -1.05802202
 O         -2.27558589    1.73773801   -0.15158500
 H         -1.27228105    0.75163102   -1.68613696
 H         -2.28854609   -1.47583401   -1.23562002
 O         -3.44998598   -0.76101202    0.27435300
 H         -2.01668310   -2.27783608    0.32563800
 H         -3.51207805   -0.86618400    1.23180497
 H         -3.00927901    1.12007594   -0.00116500
 H         -0.67159599    2.61221004    1.19990098
 H          2.34771609    2.17244005    0.47512501
 O          2.40223289   -1.08075905   -0.42975801
 H          1.35815299   -0.18947500    1.09520102
 C          2.64568090   -2.23718500    0.37181699
 H          3.56129003   -2.69307590   -0.00342200
 H          1.82300997   -2.95238090    0.29211399
 H          2.78151608   -1.95173705    1.42070794
