27
wb97x-d4 ma-def2-tzvp(-f) cpcm(dmso) E: -727.017854338033, G: -726.82486655
 C         -1.55744803   -0.07734700    0.58953202
 C         -1.40381098    1.07552004   -0.42767799
 O         -0.36675599   -0.27520299    1.38768494
 C         -2.06040192   -1.36925602   -0.04116800
 H         -2.30061197    0.22778900    1.32913303
 C          0.87496102   -0.34523001    0.74899298
 C          1.02900195    0.70704103   -0.36452401
 C         -0.05865300    1.76987803   -0.24688600
 H          0.89729899    0.21337201   -1.33483505
 O          2.34194207    1.23881698   -0.25412101
 O         -0.01485600    2.50576305    0.97364599
 H          0.07412000    2.50934196   -1.04024804
 O         -2.48156095    1.99688494   -0.32916099
 H         -1.44359505    0.67190403   -1.44092202
 H         -2.11152196   -2.14334512    0.73323601
 O         -1.29450202   -1.81292200   -1.15270305
 H         -3.07321501   -1.18464804   -0.40912601
 H         -0.39905500   -2.00088000   -0.82238901
 H         -2.32785511    2.53033304    0.46272600
 H         -0.08538600    1.87698805    1.70505202
 H          2.50622797    1.79769599   -1.02338696
 O          1.05439699   -1.67413497    0.28036699
 H          1.62224495   -0.14677501    1.52485001
 C          2.39185596   -1.95746899   -0.13437200
 H          3.09617496   -1.71821201    0.66900599
 H          2.66019607   -1.39199805   -1.03074002
 H          2.43080711   -3.02391005   -0.35196599
