27
wb97x-d4 ma-def2-tzvp(-f) cpcm(dmso) E: -727.01666802355, G: -726.82468717
 C         -1.24584997   -0.53541201    0.36314899
 C         -1.18786705    0.92520601   -0.10275800
 O          0.03343000   -1.17131901    0.30344200
 C         -2.16784406   -1.38080800   -0.50830799
 H         -1.60793197   -0.54968297    1.39960003
 C          1.05796301   -0.36346999    0.85215402
 C          1.31849802    0.85765499   -0.05423500
 C          0.08053400    1.14041305   -0.92007202
 H          2.17366600    0.67427498   -0.70439500
 O          1.67795599    1.99462700    0.72741002
 O          0.13610700    2.44982290   -1.46754706
 H          0.07282500    0.43608600   -1.75560403
 O         -1.18923402    1.77274895    1.05607402
 H         -2.06798291    1.14658105   -0.71192801
 H         -1.89489496   -1.26449394   -1.55997300
 O         -3.52367401   -0.96900201   -0.38623601
 H         -2.04670095   -2.43347311   -0.23442100
 H         -3.83685994   -1.21870100    0.49144700
 H         -1.39537895    2.66962099    0.76501000
 H          0.64983702    2.98899102   -0.84897101
 H          0.94131798    2.16678691    1.33280206
 O          2.18770099   -1.14819801    1.08609605
 H          0.74887902   -0.00369800    1.84192097
 C          2.66643310   -1.89679396   -0.03503400
 H          2.87965989   -1.25396800   -0.89358598
 H          1.94758606   -2.66435790   -0.32795301
 H          3.59182501   -2.36943603    0.29191199
