27
wb97x-d4 ma-def2-tzvp(-f) cpcm(dmso) E: -727.015652651215, G: -726.82462112
 C         -1.21177804   -0.05056200    0.71150398
 C         -0.93803000    0.79888499   -0.53533900
 O         -0.01215700   -0.43487301    1.39687395
 C         -2.03758502   -1.29035103    0.39406300
 H         -1.76862001    0.57292598    1.41531396
 C          1.16123497   -0.47673899    0.63608098
 C          1.49095595    0.87093699   -0.04920200
 C          0.23341900    1.72309196   -0.26844200
 H          1.91919303    0.64477700   -1.02742398
 O          2.46660209    1.59547698    0.68071997
 O          0.02248700    2.50502801    0.90802699
 H          0.38560301    2.38623190   -1.12474298
 O         -2.07441497    1.58790600   -0.86581898
 H         -0.67474300    0.14826000   -1.37841403
 H         -1.52471304   -1.89844298   -0.35511401
 O         -3.30193591   -0.83220202   -0.10432500
 H         -2.17345500   -1.88139606    1.30572402
 H         -3.73875904   -1.56491494   -0.55175298
 H         -2.83042598    0.98189503   -0.88553703
 H         -0.52540702    3.26168394    0.67353702
 H          1.98116398    2.20952296    1.25143397
 O          1.04051995   -1.52017701   -0.31501299
 H          1.96235001   -0.71392399    1.34411597
 C          2.29747701   -2.04436898   -0.72829998
 H          2.08859396   -2.85614491   -1.42449999
 H          2.85449195   -2.43331409    0.13187701
 H          2.90793300   -1.28921294   -1.23534501
