27
wb97x-d4 ma-def2-tzvp(-f) cpcm(dmso) E: -727.017024720677, G: -726.82442571
 C         -1.58234799   -0.02959600    0.36226201
 C         -1.38810599    1.22552395   -0.50351697
 O         -0.50736398   -0.19436701    1.30477500
 C         -1.79321206   -1.26958394   -0.50495702
 H         -2.45810509    0.11395800    0.99568802
 C          0.77850503   -0.33949101    0.76449603
 C          1.02752197    0.63017303   -0.41259000
 C          0.03121300    1.78436399   -0.34150401
 H          0.89380300    0.09666400   -1.35710204
 O          2.36529708    1.10380900   -0.40211499
 O          0.21853800    2.53350806    0.85604298
 H          0.24181101    2.48113203   -1.15605199
 O         -2.39087701    2.16743898   -0.14541499
 H         -1.49950099    0.94948900   -1.55989397
 H         -2.75305605   -1.15705204   -1.01537097
 O         -1.85127401   -2.46254206    0.25953400
 H         -1.01292205   -1.34104800   -1.27002800
 H         -0.95496500   -2.60784101    0.59453899
 H         -2.29891992    2.94089198   -0.71514201
 H         -0.11571200    2.00684190    1.59432995
 H          2.43508005    1.74512303    0.31844199
 O          0.94161803   -1.70113802    0.41400900
 H          1.47580802   -0.09584400    1.57507205
 C          2.29236197   -2.06408501    0.13767400
 H          2.30724597   -3.14697909    0.01973700
 H          2.94543910   -1.77576196    0.96883398
 H          2.65212107   -1.59358895   -0.78174502
