27
wb97x-d4 ma-def2-tzvp(-f) cpcm(dmso) E: -727.015653288609, G: -726.82380824
 C         -1.37321699   -0.00425500    0.36260200
 C         -0.98151499    0.81678402   -0.87599403
 O         -0.25850701   -0.20835300    1.25063598
 C         -2.06344604   -1.30368805   -0.02520000
 H         -2.07636309    0.59486902    0.95120299
 C          1.00618696   -0.37080601    0.66318899
 C          1.41436398    0.83922100   -0.21517301
 C          0.20088600    1.71279001   -0.53959501
 H          1.81755805    0.45448399   -1.15400398
 O          2.44011998    1.60645604    0.39549100
 O         -0.10370400    2.60467911    0.53578901
 H          0.42826501    2.35579395   -1.39135206
 O         -2.09619093    1.55314302   -1.35796297
 H         -0.68390602    0.15177400   -1.69198895
 H         -2.87217999   -1.05872905   -0.72361201
 O         -2.56481004   -2.02012396    1.09900606
 H         -1.35682797   -1.96410501   -0.52575099
 H         -3.28169990   -1.50604904    1.48873794
 H         -2.29064894    2.24477911   -0.71144497
 H         -0.31500500    2.07816100    1.31944597
 H          2.00704789    2.29135489    0.92460501
 O          1.01023495   -1.57371402   -0.07964100
 H          1.70657897   -0.45015201    1.50136197
 C          2.32132292   -2.09914899   -0.26132199
 H          2.95166206   -1.42328095   -0.84933400
 H          2.21380496   -3.04126906   -0.79758602
 H          2.79998899   -2.28061295    0.70789301
