27
wb97x-d4 ma-def2-tzvp(-f) cpcm(dmso) E: -727.014994969016, G: -726.82320676
 C         -1.24937499    0.04990300    0.69498098
 C         -1.02023196    0.87210399   -0.58013499
 O         -0.02656200   -0.20392400    1.40335596
 C         -2.00769806   -1.24179602    0.42352900
 H         -1.85129702    0.65869898    1.37623096
 C          1.13807905   -0.35789701    0.63089800
 C          1.42244995    0.86318201   -0.28378701
 C          0.19153300    1.76679397   -0.39484799
 H          1.66054595    0.48675999   -1.28052998
 O          2.54744196    1.60035300    0.16550501
 O          0.09297600    2.63755989    0.73221201
 H          0.29880500    2.42466402   -1.25903296
 O         -2.16176891    1.65823102   -0.88932198
 H         -0.79726100    0.19577201   -1.41594005
 H         -1.47043002   -1.85107005   -0.30623499
 O         -3.28870392   -0.85041898   -0.08736300
 H         -2.11680198   -1.80704796    1.35494900
 H         -3.69326806   -1.61148703   -0.51739299
 H         -2.91270494    1.04697096   -0.91045201
 H         -0.05261700    2.10495090    1.52557504
 H          2.21262097    2.28830600    0.75890601
 O          1.02185702   -1.55207396   -0.11503500
 H          1.95373499   -0.44980699    1.35591197
 C          2.28653407   -2.07157397   -0.51490700
 H          2.80872393   -1.38897300   -1.19395995
 H          2.09423304   -3.01005507   -1.03347003
 H          2.91918707   -2.25812292    0.36035600
