27
wb97x-d4 ma-def2-tzvp(-f) cpcm(dmso) E: -727.013383110444, G: -726.82188628
 C         -1.39707196   -0.15451400    0.59909701
 C         -1.34423494    1.06720197   -0.33562201
 O         -0.20352501   -0.28288901    1.38763404
 C         -1.73594904   -1.44777799   -0.14448400
 H         -2.18099689    0.02654500    1.33760500
 C          1.01603901   -0.36293700    0.69487798
 C          1.08776796    0.63373899   -0.48496801
 C          0.03759500    1.72270501   -0.30208001
 H          0.88770002    0.09905000   -1.41763902
 O          2.39103794    1.18450797   -0.60478503
 O          0.29277900    2.47789693    0.88009501
 H          0.11911800    2.43514204   -1.12661600
 O         -2.38074088    1.96158600    0.05141000
 H         -1.51270401    0.73135000   -1.36526203
 H         -1.03936100   -1.62045801   -0.96536601
 O         -3.03269601   -1.35388005   -0.72771800
 H         -1.67074394   -2.29172897    0.54878497
 H         -3.68432403   -1.33910096   -0.01650500
 H         -2.37270093    2.71443391   -0.55243403
 H          0.08402400    1.91970003    1.64105594
 H          2.49656105    1.82566297    0.11130800
 O          1.20589006   -1.70437205    0.29798201
 H          1.78739798   -0.09336600    1.42695105
 C          2.53211403   -1.97337902   -0.14848401
 H          3.26574492   -1.65528500    0.60146999
 H          2.74945307   -1.46858001   -1.09459698
 H          2.60182500   -3.05125189   -0.29170999
