48
wb97x-d4 ma-def2-tzvp(-f) cpcm(dmso) E: -1056.432139908233, G: -1056.05565159
 C         -2.68515706   -0.06330600    1.01252401
 C         -2.06228304    1.30439401    0.71746999
 O         -2.91942811    2.35887599    1.11433697
 C         -1.69455504    1.42158198   -0.76023000
 O         -0.93458802    2.58355689   -1.04436696
 C         -0.87771100    0.21882699   -1.20710897
 C         -1.61840498   -1.06733096   -0.87090600
 C         -0.90367299   -2.35103607   -1.24815094
 O         -1.75975204   -3.47470689   -1.08680797
 O         -1.85214698   -1.10643005    0.53653997
 O         -0.49156600    0.27354801   -2.52543592
 O         -3.95219588   -0.07784800    0.42383301
 H         -2.57543707   -1.03892303   -1.40688801
 H         -2.75928402   -0.22913601    2.09201908
 H         -2.61488605    1.41850901   -1.36006904
 H          0.16605000    0.24769500   -0.53277600
 C         -4.75273895   -1.19241500    0.82210797
 H         -3.80056405    2.16056991    0.76757801
 H         -0.62019402   -2.31327510   -2.30022597
 H          0.00022500   -2.47144794   -0.64342898
 H         -0.33222601    1.20296299   -2.75597596
 H         -1.52236605    3.34759498   -1.00688303
 H         -2.00157690   -3.52788401   -0.15389401
 H         -5.74185610   -1.03818202    0.39318001
 H         -4.82551098   -1.23639703    1.91375899
 H         -4.33077908   -2.12782097    0.44541201
 H         -1.15580702    1.39877605    1.31857204
 C          3.83245707   -0.29099301   -0.71536398
 C          2.33207393   -0.46010900   -1.07093096
 C          3.93425202    0.25842500    0.71079803
 C          3.08577394   -0.61795098    1.63818002
 C          1.59238803   -0.43645400    1.26325202
 N          1.54789698    0.24826699   -0.04402500
 H          4.31112194    0.39277101   -1.41937995
 H          2.08638310   -0.02994200   -2.04116607
 H          4.97423220    0.26066500    1.04083598
 H          3.37245011   -1.66633499    1.53153002
 H          1.06044698    0.19139600    1.97727704
 H          4.32733011   -1.26038802   -0.79448998
 H          2.03031611   -1.50631702   -1.05551600
 C          3.36826611    1.68153703    0.72729403
 H          3.22897911   -0.33151600    2.68144798
 H          1.07443595   -1.38969302    1.17311704
 C          1.96242499    1.66022897    0.07357700
 H          4.01272678    2.36252499    0.16898701
 H          3.29664207    2.04692197    1.75390100
 H          1.96592295    2.08408403   -0.92953598
 H          1.22189105    2.18212008    0.67602903
