48
wb97x-d4 ma-def2-tzvp(-f) cpcm(dmso) E: -1056.432139554715, G: -1056.0553625300001
 C         -2.68792105    0.73264700    0.61820501
 C         -1.92640698    1.55582798   -0.42615399
 O         -2.68404794    2.67241812   -0.85599101
 C         -1.51881099    0.68142301   -1.61130404
 O         -0.63904899    1.34720004   -2.50075889
 C         -0.82510501   -0.58590001   -1.13504696
 C         -1.69615805   -1.30740798   -0.11741900
 C         -1.10621595   -2.58339310    0.45196900
 O         -2.06558800   -3.28100991    1.23560500
 O         -1.95237696   -0.42606500    0.97473502
 O         -0.42117500   -1.41629303   -2.15469909
 O         -3.93814802    0.42993999    0.07340100
 H         -2.63828897   -1.56286502   -0.61830902
 H         -2.79890609    1.29585302    1.55025196
 H         -2.42368889    0.36250401   -2.14652395
 H          0.20043901   -0.22112300   -0.55144399
 C         -4.86080313   -0.10809300    1.02267396
 H         -3.57325506    2.35408211   -1.06587803
 H         -0.81879002   -3.24526906   -0.36532000
 H         -0.21804699   -2.35764503    1.05064595
 H         -0.16239700   -0.86641502   -2.91118312
 H         -1.14912200    1.99344599   -3.00327897
 H         -2.31234288   -2.71058011    1.97415996
 H         -5.81904316   -0.19889000    0.51312798
 H         -4.95999718    0.56641501    1.87948000
 H         -4.53364515   -1.09268796    1.36705697
 H         -1.02817702    1.95616806    0.04755300
 C          2.93128896    0.69851398    1.84682405
 C          1.51112497    0.28349400    1.38064396
 C          3.91105008    0.48696700    0.68834102
 C          3.54811811    1.44980395   -0.44515499
 C          2.04719710    1.26330400   -0.79364997
 N          1.56753194    0.06587100   -0.07754800
 H          3.21664000    0.09349200    2.70913196
 H          1.18597400   -0.64722598    1.84279895
 H          4.93356705    0.66736001    1.02398300
 H          3.71987295    2.48444104   -0.14365400
 H          1.88658404    1.10494399   -1.85769701
 H          2.93064499    1.74666595    2.15261412
 H          0.77049601    1.05659604    1.57868898
 C          3.77238894   -0.95013303    0.17511401
 H          4.16268015    1.24690604   -1.32462597
 H          1.44220197    2.10648894   -0.46398601
 C          2.35506892   -1.12691104   -0.43390599
 H          3.91480303   -1.65854299    0.99369198
 H          4.52104092   -1.16059697   -0.59027100
 H          1.84944499   -2.00549603   -0.03588600
 H          2.37935209   -1.19022703   -1.52100897
