48
wb97x-d4 ma-def2-tzvp(-f) cpcm(dmso) E: -1056.432006904213, G: -1056.0536345300002
 C         -2.75074697    0.25418001    0.98269397
 C         -2.02357411    1.47980404    0.43141401
 O         -2.80348897    2.65581799    0.56691498
 C         -1.61607802    1.27246404   -1.02792597
 O         -0.80825102    2.33808303   -1.49090195
 C         -0.86671102   -0.04043800   -1.18523598
 C         -1.68914104   -1.18447697   -0.58302402
 C         -1.02225602   -2.55530095   -0.62871099
 O         -0.66880298   -2.90768695   -1.96922100
 O         -1.96994996   -0.91275901    0.78263903
 O         -0.46926999   -0.24345601   -2.48701310
 O         -3.99416709    0.18569900    0.35083199
 H         -2.62236094   -1.23574996   -1.16003799
 H         -2.87333107    0.32840800    2.06792593
 H         -2.52354598    1.19063997   -1.64306998
 H          0.15705501    0.07744400   -0.51373601
 C         -4.87523222   -0.77965599    0.92861998
 H         -3.68792701    2.45693994    0.22883700
 H         -0.10012300   -2.55735612   -0.04750700
 H         -1.70244896   -3.29211402   -0.19543900
 H         -0.36014399   -1.20764399   -2.61697698
 H         -1.30130899    3.15487790   -1.34045398
 H         -1.45432305   -3.24663997   -2.41724300
 H         -4.51073599   -1.79439998    0.74886501
 H         -5.84386206   -0.64859599    0.44838899
 H         -4.97062492   -0.61046898    2.00616193
 H         -1.12542796    1.63492799    1.03313100
 C          3.36029410    1.76309800    0.52643800
 C          1.97225499    1.61809802   -0.15157799
 C          3.92190194    0.36247799    0.79009801
 C          3.84067893   -0.44631600   -0.50904900
 C          2.34500194   -0.68851000   -0.83871800
 N          1.54928505    0.21415500    0.00902700
 H          3.26256490    2.31320405    1.46476901
 H          1.22145402    2.25539589    0.30975801
 H          4.95613194    0.42580000    1.13203895
 H          4.32236004    0.09853100   -1.32354701
 H          2.04089189   -1.70952499   -0.61123902
 H          4.02096081    2.33006191   -0.13158700
 H          2.00844002    1.82902300   -1.21911597
 C          3.05219698   -0.31869200    1.85222805
 H          4.34156418   -1.40993905   -0.40238899
 H          2.11277699   -0.46765199   -1.88029897
 C          1.56569505   -0.19576900    1.42607999
 H          3.18424010    0.15696201    2.82547212
 H          3.32761502   -1.37114596    1.94869804
 H          1.03584898    0.56939101    1.99228406
 H          1.03462803   -1.14119101    1.52070296
