48
wb97x-d4 ma-def2-tzvp(-f) cpcm(dmso) E: -1056.431349019934, G: -1056.0534675600002
 C         -2.72621989   -0.44265199    1.03410900
 C         -2.08085203    0.93383199    1.18194902
 O         -2.90307307    1.81831300    1.92443097
 C         -1.74173903    1.53334999   -0.18371201
 O         -1.00197506    2.73230600   -0.04740300
 C         -0.95297301    0.53988999   -1.02238297
 C         -1.69229603   -0.80225098   -1.07450795
 C         -0.97344202   -1.91229999   -1.82567000
 O         -0.75579602   -1.45731699   -3.16511393
 O         -1.90595496   -1.28709304    0.24299400
 O         -0.62610698    1.06567895   -2.25120306
 O         -3.99404097   -0.25192499    0.48136100
 H         -2.65206504   -0.61313099   -1.57281494
 H         -2.79765511   -0.94733101    2.00275993
 H         -2.67709088    1.72642004   -0.72802597
 H          0.10011300    0.35103700   -0.42300901
 C         -4.81341124   -1.42227697    0.51147401
 H         -3.79322910    1.77076399    1.54851496
 H         -0.02616900   -2.15471411   -1.33817196
 H         -1.60632300   -2.80395293   -1.81723797
 H         -0.47761801    0.31712499   -2.86442399
 H         -1.51884699    3.32216811    0.51631302
 H         -0.10321200   -2.02886605   -3.58622599
 H         -4.88548279   -1.80902100    1.53327501
 H         -4.40889978   -2.19695306   -0.14512999
 H         -5.80025721   -1.12395096    0.16042000
 H         -1.16033697    0.81529897    1.75685000
 C          3.77297091   -0.27838901   -0.68463302
 C          2.31545305   -0.00649000   -1.14596105
 C          3.90722799    0.14185500    0.78236502
 C          3.04423308   -0.78755897    1.64204097
 C          1.60778606   -0.81243002    1.05508804
 N          1.51634204    0.27073401    0.05907500
 H          4.45907211    0.28854701   -1.31578195
 H          2.24480295    0.86664099   -1.79340506
 H          4.95058012    0.08381100    1.09663403
 H          3.44775510   -1.80146599    1.64268196
 H          0.84920800   -0.63731599    1.81658304
 H          4.00634289   -1.33927405   -0.79632598
 H          1.88804996   -0.86763000   -1.65751600
 C          3.38525796    1.57404101    0.93282098
 H          3.01944590   -0.43136501    2.67390990
 H          1.39361203   -1.75112903    0.54632598
 C          1.86114705    1.57996595    0.64105701
 H          3.90111709    2.23870492    0.23677599
 H          3.55666399    1.94386601    1.94514298
 H          1.57940996    2.35065293   -0.07259000
 H          1.26846898    1.70178103    1.54629099
