48
wb97x-d4 ma-def2-tzvp(-f) cpcm(dmso) E: -1056.431300181059, G: -1056.05346585
 C         -2.83405399    0.07314200    1.03786194
 C         -2.05387592    1.33971000    0.69403201
 O         -2.80990696    2.50953388    0.95822799
 C         -1.57904398    1.32842898   -0.75914401
 O         -0.69646698    2.40899491   -1.00945103
 C         -0.87949097    0.02137600   -1.09403801
 C         -1.73081505   -1.17532599   -0.65955001
 C         -1.05869496   -2.53351092   -0.83096498
 O         -0.58943897   -2.71688294   -2.17046309
 O         -2.06296110   -1.07319903    0.71779102
 O         -0.49112099   -0.01171000   -2.41389990
 O         -4.04493523    0.12042600    0.34481299
 H         -2.64048600   -1.14982796   -1.27395904
 H         -3.00838900    0.00465800    2.11634302
 H         -2.45488811    1.39402997   -1.41982305
 H          0.15762600    0.01606700   -0.43203801
 C         -4.98787880   -0.86278403    0.77689201
 H         -3.67476106    2.39677095    0.53945100
 H         -0.19363500   -2.60857296   -0.17275099
 H         -1.76875806   -3.31604910   -0.55504900
 H         -0.34570900   -0.95011699   -2.65106606
 H         -1.15800595    3.21929407   -0.75733298
 H         -1.31608105   -3.05314493   -2.70954609
 H         -5.14832878   -0.78571099    1.85720801
 H         -4.64105177   -1.86938500    0.52914000
 H         -5.91948605   -0.65736401    0.25152799
 H         -1.18556499    1.38435996    1.35260201
 C          3.66775489   -1.02193403    0.41053399
 C          2.14416909   -1.18554401    0.16260201
 C          3.95887303    0.45353299    0.69884002
 C          3.02448392    0.92922097    1.81563103
 C          1.56660700    0.90199900    1.28603101
 N          1.57094097    0.16294301    0.01123100
 H          4.22651005   -1.35335600   -0.46704000
 H          1.94287801   -1.74369895   -0.75130498
 H          5.00020409    0.58041501    0.99921602
 H          3.11756611    0.27820200    2.68741798
 H          1.18527806    1.90162206    1.08273900
 H          3.96031404   -1.64778602    1.25525701
 H          1.64295101   -1.66493499    1.00286305
 C          3.66818094    1.26651096   -0.56665701
 H          3.27435398    1.94596696    2.12328410
 H          0.89402801    0.38773200    1.97189295
 C          2.24033093    0.91466099   -1.06387198
 H          4.38858604    1.03236496   -1.35217798
 H          3.73505092    2.33514595   -0.35189101
 H          2.26082397    0.27367201   -1.94412506
 H          1.64631295    1.80005896   -1.27728295
