48
wb97x-d4 ma-def2-tzvp(-f) cpcm(dmso) E: -1056.431268041898, G: -1056.05329759
 C         -2.85971093    0.52860397    0.80827802
 C         -1.98286402    1.55679703    0.10006800
 O         -2.66481900    2.78456497   -0.09067400
 C         -1.46801305    1.02005804   -1.23578596
 O         -0.50674099    1.89585197   -1.80096805
 C         -0.84527898   -0.35425800   -1.06101894
 C         -1.77329302   -1.28475296   -0.27159101
 C         -1.16549599   -2.63988590    0.07026100
 O         -0.73958701   -3.32161689   -1.11298704
 O         -2.14855695   -0.68923402    0.96095997
 O         -0.42744401   -0.86937797   -2.26606488
 O         -4.02587700    0.38371900    0.05447200
 H         -2.65908098   -1.44690394   -0.90044498
 H         -3.09393096    0.85002398    1.82806003
 H         -2.31840205    0.89818603   -1.92098904
 H          0.17309199   -0.15775900   -0.38997400
 C         -5.05024719   -0.35713100    0.72058302
 H         -3.52370405    2.58092690   -0.48642299
 H         -0.28702900   -2.51310706    0.70158702
 H         -1.90311098   -3.23000407    0.61889899
 H         -0.34522200   -1.83894205   -2.15923595
 H         -0.92097199    2.76547599   -1.87401199
 H         -1.50028300   -3.77166796   -1.50152397
 H         -5.27104378    0.09194100    1.69445205
 H         -4.74969006   -1.39922202    0.85762900
 H         -5.93415308   -0.31279501    0.08594800
 H         -1.13658297    1.77461600    0.75270802
 C          3.11084008    1.78777695    0.93453401
 C          1.61746502    1.42532396    0.71964800
 C          3.95894790    0.54007798    0.67137498
 C          3.85542607    0.17803800   -0.81367999
 C          2.35482311    0.11592900   -1.20316899
 N          1.57192302    0.11482500    0.04369400
 H          3.24934196    2.14308000    1.95697200
 H          1.08163702    1.32415903    1.66329706
 H          4.99932718    0.72522199    0.94332302
 H          4.35326815    0.92623800   -1.43281698
 H          2.11361194   -0.78975099   -1.75785100
 H          3.40086293    2.59083891    0.25354099
 H          1.10977900    2.14985991    0.08718400
 C          3.39258599   -0.61895001    1.49745405
 H          4.33178282   -0.78691500   -0.99974400
 H          2.04113102    0.98260099   -1.78252006
 C          1.98532701   -0.97300297    0.94789797
 H          3.32201505   -0.33342299    2.54907990
 H          4.03541183   -1.49787605    1.42639005
 H          1.24659801   -1.05222595    1.74468899
 H          1.99593997   -1.89593601    0.36848801
