48
wb97x-d4 ma-def2-tzvp(-f) cpcm(dmso) E: -1056.431321673899, G: -1056.05326532
 C         -2.87045193    0.47972101    0.82416499
 C         -2.01304412    1.52536500    0.11795300
 O         -2.71635795    2.74209189   -0.06645000
 C         -1.49290001    1.00209796   -1.22119999
 O         -0.54702997    1.89559197   -1.78506005
 C         -0.84730703   -0.36281100   -1.05407000
 C         -1.75290501   -1.31165802   -0.26060301
 C         -1.11526299   -2.65416598    0.07956700
 O         -0.65923202   -3.32191610   -1.10087097
 O         -2.13715410   -0.72518897    0.97342402
 O         -0.43185601   -0.86932600   -2.26374507
 O         -4.03422594    0.31583700    0.07052100
 H         -2.63698792   -1.49175298   -0.88688803
 H         -3.10999489    0.79424602    1.84486401
 H         -2.34292102    0.86943603   -1.90480196
 H          0.17249601   -0.15062600   -0.39109501
 C         -5.04415989   -0.44647399    0.73411697
 H         -3.57251000    2.52555799   -0.46128201
 H         -0.24677400   -2.50903201    0.72056103
 H         -1.84365702   -3.26442289    0.61807102
 H         -0.33228600   -1.83743203   -2.15780497
 H         -0.97408998    2.75960207   -1.85049403
 H         -1.40543401   -3.78731608   -1.49930406
 H         -5.93107700   -0.41085401    0.10312000
 H         -5.26841497   -0.00905600    1.71248996
 H         -4.72667408   -1.48478496    0.86131901
 H         -1.16882002    1.75522101    0.76917100
 C          3.42238092   -0.59313202    1.44908202
 C          2.00611901   -0.94917798    0.92381197
 C          3.95362496    0.59999502    0.64917898
 C          3.08368111    1.82220602    0.95590198
 C          1.59650695    1.44541299    0.72190499
 N          1.57031500    0.14094301    0.03396500
 H          4.07578707   -1.45937204    1.33268702
 H          2.00884008   -1.86931801    0.34011301
 H          4.99268723    0.79994500    0.91590297
 H          3.21451306    2.13971210    1.99175096
 H          1.08767402    2.16937995    0.08970800
 H          3.37416792   -0.34394699    2.51104403
 H          1.28268301   -1.03447998    1.73392606
 C          3.84401894    0.27772400   -0.84442598
 H          3.36246109    2.65556312    0.30751899
 H          1.05152905    1.33105195    1.65876603
 C          2.34204197    0.16587301   -1.21916902
 H          4.35588121   -0.66115397   -1.06564295
 H          4.30414677    1.06404901   -1.44523704
 H          2.12526608   -0.74910003   -1.76858795
 H          1.99470603    1.01987505   -1.79786694
