48
wb97x-d4 ma-def2-tzvp(-f) cpcm(dmso) E: -1056.430208159758, G: -1056.0532533300002
 C         -2.71886611   -0.42204800    0.96152103
 C         -2.08865595    0.97381902    1.05289698
 O         -2.94479489    1.92361903    1.66257703
 C         -1.75851500    1.49446106   -0.34008700
 O         -1.01563704    2.70144606   -0.31555900
 C         -0.94081199    0.47228599   -1.11494803
 C         -1.63226795   -0.88439602   -1.10629106
 C         -0.88142699   -2.00399494   -1.80254304
 O         -1.68667901   -3.17256999   -1.89227498
 O         -1.84253705   -1.28523099    0.24582300
 O         -0.61213100    0.87837899   -2.38749290
 O         -3.97026396   -0.31967300    0.36016399
 H         -2.59768295   -0.75765300   -1.61205304
 H         -2.80247903   -0.87473601    1.95598805
 H         -2.69568205    1.64039600   -0.89300001
 H          0.12296000    0.35287800   -0.49568599
 C         -4.71212292   -1.53964198    0.39552501
 H         -2.90859509    1.80415201    2.61868811
 H         -0.64003199   -1.70117295   -2.82171702
 H          0.04919400   -2.22519898   -1.27060604
 H         -0.47434801    1.83882499   -2.37430692
 H         -1.60919595    3.41522193   -0.05348000
 H         -1.88977897   -3.45672989   -0.99241102
 H         -4.25096178   -2.29944301   -0.24143100
 H         -5.71075583   -1.31089902    0.02549800
 H         -4.77724695   -1.91657495    1.42204404
 H         -1.16252804    0.87215400    1.62697005
 C          3.81342006    0.11687500   -0.83168697
 C          2.31580305   -0.02001200   -1.21320403
 C          3.91826701    0.23439300    0.69266200
 C          3.13473511   -0.91516000    1.33484197
 C          1.62746096   -0.71793997    1.02967501
 N          1.51978099    0.31384999   -0.01947100
 H          4.24250889    1.00063503   -1.30812299
 H          2.02988601    0.66349101   -2.01202202
 H          4.96388006    0.19759300    1.00231099
 H          3.47456908   -1.87294197    0.93545997
 H          1.07449996   -0.35721001    1.89628303
 H          4.35360479   -0.75943899   -1.19377398
 H          2.06493902   -1.03837204   -1.50731599
 C          3.28268909    1.56099105    1.11969197
 H          3.28126597   -0.92751300    2.41611409
 H          1.16230202   -1.63233602    0.66575402
 C          1.86290705    1.65155900    0.50005198
 H          3.87863398    2.40628409    0.77151698
 H          3.21852207    1.61661994    2.20842695
 H          1.81955802    2.34738111   -0.33618599
 H          1.11262000    1.93358099    1.23519099
