48
wb97x-d4 ma-def2-tzvp(-f) cpcm(dmso) E: -1056.429484380654, G: -1056.05313567
 C         -2.82792711    0.37740901    0.91921699
 C         -2.02407789    1.51271296    0.28566301
 O         -2.76821804    2.71658802    0.22789299
 C         -1.54032195    1.10808396   -1.10413694
 O         -0.61070299    2.03386092   -1.64511800
 C         -0.86230397   -0.25274700   -1.08632004
 C         -1.72164595   -1.29094195   -0.37335700
 C         -1.06758702   -2.64700389   -0.22041300
 O         -2.09761500   -3.59117889    0.06154800
 O         -2.06780696   -0.81693202    0.92423803
 O         -0.47333899   -0.68823999   -2.33344007
 O         -4.01876116    0.26109201    0.19725500
 H         -2.62728500   -1.41598797   -0.98065197
 H         -3.03465796    0.58648199    1.97383296
 H         -2.41152406    1.01745498   -1.76725996
 H          0.18014100   -0.09574300   -0.43580201
 C         -4.96655512   -0.62385398    0.79705000
 H         -3.63101506    2.50624204   -0.15576400
 H         -0.54595798   -2.90401411   -1.14725602
 H         -0.34433201   -2.61257911    0.59937400
 H         -0.25004700    0.08245400   -2.87761688
 H         -1.08211398    2.84927011   -1.85476601
 H         -1.67986906   -4.43708992    0.25871399
 H         -4.61510420   -1.65790606    0.75223601
 H         -5.89081478   -0.52723801    0.22906999
 H         -5.14262390   -0.34196299    1.84035599
 H         -1.16484296    1.71295202    0.92597002
 C          3.59063506   -0.92612499    0.85529798
 C          2.07191801   -1.10726905    0.58780801
 C          3.97108603    0.53074300    0.57463199
 C          3.06136203    1.44576001    1.39958704
 C          1.59791601    1.26599097    0.91360599
 N          1.57513106    0.13415900   -0.03075500
 H          4.16275120   -1.59698403    0.21168800
 H          1.87783897   -1.92729199   -0.10245500
 H          5.01548386    0.70316303    0.83961898
 H          3.13374209    1.19393206    2.45949793
 H          1.22916603    2.14203501    0.38235599
 H          3.80596209   -1.18652999    1.89292300
 H          1.50827301   -1.26503301    1.50681901
 C          3.74707794    0.82706398   -0.91065103
 H          3.35457611    2.48984790    1.27816796
 H          0.92448598    1.02808499    1.73626900
 C          2.29043198    0.44057000   -1.28113794
 H          4.44014502    0.25365800   -1.52818203
 H          3.91125989    1.88761306   -1.11137497
 H          2.25126696   -0.44989401   -1.90735102
 H          1.76639497    1.25532198   -1.77687597
