48
wb97x-d4 ma-def2-tzvp(-f) cpcm(dmso) E: -1056.429948638448, G: -1056.05309616
 C         -2.72258592    0.21409300    0.99475801
 C         -2.03585100    1.45611703    0.41854000
 O         -2.85167789    2.60626793    0.54874903
 C         -1.64090097    1.22679996   -1.03954804
 O         -0.82435799    2.26484990   -1.55250502
 C         -0.88155198   -0.08155900   -1.18653798
 C         -1.69667196   -1.22884798   -0.59831202
 C         -1.06308103   -2.61439490   -0.67231297
 O         -1.02146900   -3.11970401   -1.99866498
 O         -1.93705595   -0.94670802    0.77695602
 O         -0.46350199   -0.34347999   -2.47273993
 O         -3.98353004    0.12771900    0.39962301
 H         -2.64387202   -1.26505899   -1.15113604
 H         -2.81467390    0.29142401    2.08278608
 H         -2.55220509    1.13111603   -1.64536595
 H          0.15397599    0.03567600   -0.50691199
 C         -4.83686399   -0.84360802    1.00825095
 H         -3.73974299    2.36457491    0.25031200
 H         -0.06808000   -2.61521411   -0.21816200
 H         -1.69415402   -3.29163289   -0.09455000
 H         -0.22626600    0.49397099   -2.90131402
 H         -1.38045704    3.03658795   -1.71219599
 H         -0.47731599   -2.52601695   -2.53060102
 H         -5.82039499   -0.72565901    0.55573201
 H         -4.90270281   -0.66867501    2.08711505
 H         -4.46646214   -1.85533094    0.82400900
 H         -1.13584197    1.64674604    1.00621796
 C          3.41936898    1.67599595    0.28883401
 C          1.91831994    1.57860696   -0.09296900
 C          3.87500596    0.32495600    0.84685898
 C          3.78333211   -0.72262198   -0.26675799
 C          2.35054302   -0.69010001   -0.86260802
 N          1.52094495    0.16101000    0.00981700
 H          3.55008507    2.46415997    1.03224695
 H          1.28547001    2.14758706    0.58594102
 H          4.90119219    0.39454499    1.21141398
 H          4.50531387   -0.51057303   -1.05692697
 H          1.90557504   -1.68274105   -0.90010601
 H          4.01026297    1.93851697   -0.59108698
 H          1.72866595    1.90653706   -1.11247694
 C          2.93777895   -0.08051900    1.98793900
 H          3.99707294   -1.71664202    0.13136099
 H          2.33115506   -0.25160500   -1.85941303
 C          1.51581001   -0.30627000    1.41006398
 H          2.91037798    0.70231301    2.74855304
 H          3.28342700   -1.00124598    2.46086001
 H          0.75683802    0.25789699    1.94986606
 H          1.24075603   -1.35985899    1.40639997
