48
wb97x-d4 ma-def2-tzvp(-f) cpcm(dmso) E: -1056.429646950151, G: -1056.0530709200002
 C         -2.83513188    0.68617702    0.53407300
 C         -1.98339403    1.50943398   -0.44304299
 O         -2.68757892    2.61524391   -0.97997099
 C         -1.53518701    0.64413297   -1.61343503
 O         -0.62219501    1.30678594   -2.46972299
 C         -0.86493897   -0.62361002   -1.10565197
 C         -1.79003000   -1.34791696   -0.13512699
 C         -1.26846397   -2.64748502    0.45194900
 O         -0.20863700   -2.46065307    1.37982702
 O         -2.11493206   -0.47213900    0.93913299
 O         -0.42674801   -1.45508802   -2.11033297
 O         -4.04508018    0.36537600   -0.07612900
 H         -2.69443488   -1.59882498   -0.70563602
 H         -3.00549698    1.24552596    1.46072805
 H         -2.42142391    0.33187401   -2.18176103
 H          0.15304600   -0.25835699   -0.48986700
 C         -4.99514198   -0.20377800    0.82541400
 H         -2.66273808    3.33760309   -0.34200799
 H         -2.10651708   -3.16673398    0.92748499
 H         -0.88801098   -3.27591109   -0.35435900
 H         -0.14240000   -0.90702200   -2.85876489
 H         -1.10781598    1.97909296   -2.96228695
 H         -0.58525699   -2.06755090    2.17591500
 H         -5.92588091   -0.31763101    0.27102900
 H         -5.15519285    0.46242401    1.68019104
 H         -4.66134405   -1.18132198    1.18405902
 H         -1.10061204    1.85300100    0.10452600
 C          2.93436408    0.49316201    1.88681698
 C          1.47231603    0.42453799    1.37650096
 C          3.87694693    0.46705100    0.67972898
 C          3.42859006    1.54319799   -0.31352299
 C          2.03997993    1.14791203   -0.88081002
 N          1.51631403    0.04683800   -0.04929500
 H          3.14104009   -0.35438901    2.54402590
 H          0.88726002   -0.32093799    1.90704405
 H          4.90442801    0.64977098    0.99862301
 H          3.36485600    2.51311994    0.18443599
 H          2.10025191    0.78416300   -1.90534496
 H          3.06915402    1.40991497    2.46356606
 H          0.97137201    1.38996303    1.44059205
 C          3.76769900   -0.90128797   -0.00024100
 H          4.13953304    1.63143098   -1.13688302
 H          1.33075702    1.97117996   -0.83976603
 C          2.26980209   -1.19955301   -0.27155101
 H          4.17723179   -1.68528795    0.63928002
 H          4.32771492   -0.90162098   -0.93769902
 H          1.86624503   -1.94607306    0.40786701
 H          2.09567904   -1.51573801   -1.29960096
