48
wb97x-d4 ma-def2-tzvp(-f) cpcm(dmso) E: -1056.429021090304, G: -1056.05287096
 C         -2.77765107   -0.35921600    0.99766201
 C         -2.02583194    0.97544301    1.04533601
 O         -2.78816700    2.02039003    1.62337506
 C         -1.65551198    1.41826999   -0.36340800
 O         -0.79804403    2.54804301   -0.37809700
 C         -0.93752003    0.30729601   -1.11062205
 C         -1.70276797   -1.00640702   -1.02773595
 C         -0.98934603   -2.19664788   -1.63992906
 O         -1.84982502   -3.32722211   -1.70470405
 O         -1.96176898   -1.32093596    0.33783701
 O         -0.62619901    0.63063800   -2.41067100
 O         -4.00122499   -0.17222901    0.36172000
 H         -2.64894795   -0.85908800   -1.56347704
 H         -2.92068410   -0.76036102    2.00718188
 H         -2.57840610    1.63780797   -0.91604298
 H          0.14366400    0.16317900   -0.51118100
 C         -4.85635805   -1.31358695    0.43741599
 H         -2.74695992    1.93936205    2.58333397
 H         -0.69677800   -1.95814002   -2.66280794
 H         -0.09183700   -2.43267488   -1.06169105
 H         -0.46624401    1.58586705   -2.46428108
 H         -1.30012500    3.31151605   -0.06781600
 H         -2.08846903   -3.56609297   -0.80060798
 H         -4.98499012   -1.62505305    1.47967803
 H         -4.45198011   -2.14732504   -0.14319400
 H         -5.81805420   -1.01338804    0.02321300
 H         -1.11551499    0.80531001    1.62536800
 C          3.75315499    0.94907498   -0.79700398
 C          2.23266792    1.00254798   -1.09910595
 C          3.94870400    0.40584499    0.62190199
 C          3.49247193   -1.05645096    0.65665901
 C          2.07002211   -1.14496696    0.04390500
 N          1.54146302    0.22886200   -0.05291900
 H          4.16989803    1.95339096   -0.88944799
 H          1.84202397    2.01896501   -1.06395805
 H          4.99709082    0.48180500    0.91442800
 H          4.16836119   -1.68954599    0.07955500
 H          1.39208996   -1.72662103    0.66754198
 H          4.25669384    0.30532601   -1.52118397
 H          1.99165905    0.55804098   -2.06418991
 C          3.06878495    1.21316302    1.57968795
 H          3.47946811   -1.42280996    1.68525398
 H          2.08651495   -1.56175601   -0.96245098
 C          1.58321702    0.91383702    1.25524402
 H          3.26781511    2.28091788    1.46621895
 H          3.26941109    0.93884999    2.61674500
 H          0.99173403    1.82337201    1.18056703
 H          1.13230503    0.24339999    1.98669600
