48
wb97x-d4 ma-def2-tzvp(-f) cpcm(dmso) E: -1056.428593981002, G: -1056.0528649500002
 C         -2.78704000    0.72937799    0.56045997
 C         -1.95901704    1.51645303   -0.46561500
 O         -2.66712904    2.61384511   -1.01440597
 C         -1.54580104    0.61751699   -1.62450004
 O         -0.63538402    1.24548197   -2.50983405
 C         -0.88516903   -0.64967501   -1.10167897
 C         -1.80816495   -1.33228600   -0.09855800
 C         -1.33992803   -2.65734696    0.45579299
 O         -0.14256001   -2.48977804    1.20478797
 O         -2.06790304   -0.42786700    0.97070903
 O         -0.47152600   -1.50697196   -2.09407306
 O         -4.02224493    0.41237399   -0.00036600
 H         -2.74059010   -1.54586899   -0.63819402
 H         -2.91847205    1.31434298    1.47756898
 H         -2.44701910    0.30869201   -2.17082691
 H          0.14283900   -0.27664801   -0.50876802
 C         -4.94456100   -0.13320000    0.94312602
 H         -2.63017702    3.34875011   -0.39143199
 H         -2.14018989   -3.05523992    1.08900106
 H         -1.18599701   -3.34327412   -0.38305500
 H         -0.19312000   -0.97773802   -2.85822797
 H         -1.11671102    1.91432905   -3.01124191
 H          0.14688900   -3.35936308    1.50295103
 H         -4.61501789   -1.11516500    1.29367101
 H         -5.89965391   -0.23181100    0.42862499
 H         -5.05600595    0.54015201    1.79999006
 H         -1.06150103    1.86878002    0.05071700
 C          2.89475799    0.40312299    1.91233802
 C          1.43597603    0.31093001    1.39539695
 C          3.83281493    0.54223597    0.70894003
 C          3.32348299    1.68199801   -0.17803000
 C          1.96139395    1.26343095   -0.78965503
 N          1.49527097    0.06777900   -0.05988000
 H          3.14601493   -0.49324599    2.48391199
 H          0.88469702   -0.50738400    1.85053396
 H          4.85075521    0.74795198    1.04404604
 H          3.20337391    2.59347296    0.41144001
 H          2.04609108    0.99251097   -1.84032798
 H          2.98559809    1.26436102    2.57658792
 H          0.89131099    1.24317300    1.54387701
 C          3.79292798   -0.76006103   -0.09799100
 H          4.02809906    1.89142895   -0.98481202
 H          1.21123099    2.04397893   -0.68547601
 C          2.31174898   -1.11214399   -0.39433399
 H          4.24858618   -1.57805395    0.46276200
 H          4.34608603   -0.64118302   -1.03206098
 H          1.95071805   -1.93800998    0.21284100
 H          2.15022612   -1.34415901   -1.44673300
