48
wb97x-d4 ma-def2-tzvp(-f) cpcm(dmso) E: -1056.429616561168, G: -1056.05272183
 C         -2.92533588   -0.31734699    1.05405402
 C         -2.12930298    0.98185301    1.12632704
 O         -2.91503191    1.97362804    1.76034498
 C         -1.69785905    1.42249596   -0.26512200
 O         -0.86993098    2.56552005   -0.11657700
 C         -0.98689902    0.28513601   -0.98850298
 C         -1.78194499   -1.02202499   -0.90891999
 C         -1.04912198   -2.24701405   -1.43561196
 O         -0.62892002   -1.96842694   -2.77488995
 O         -2.12215209   -1.31658804    0.43741199
 O         -0.65395302    0.66820002   -2.26676702
 O         -4.11096811   -0.08847100    0.36227599
 H         -2.68910193   -0.86678201   -1.50742805
 H         -3.12744498   -0.70179302    2.05895400
 H         -2.58915401    1.67385304   -0.85198098
 H          0.07607200    0.12864400   -0.37958699
 C         -5.02298021   -1.18567002    0.42816499
 H         -2.39196491    2.78526998    1.77498102
 H         -0.19173799   -2.47127891   -0.79905301
 H         -1.73272800   -3.10042405   -1.41502905
 H         -0.45637399   -0.14558899   -2.77342200
 H         -0.87225401    3.05826497   -0.94540399
 H          0.06536100   -2.59080505   -3.01966310
 H         -4.62886381   -2.05682707   -0.10232000
 H         -5.94545698   -0.85556298   -0.04780700
 H         -5.22199202   -1.45371103    1.47133195
 H         -1.23846698    0.76838201    1.72648299
 C          3.66338611    1.10118306   -0.61692297
 C          2.13909888    1.10063100   -0.90716302
 C          3.90981007    0.37386301    0.70770901
 C          3.51415110   -1.09604895    0.54247099
 C          2.06057096   -1.16048801    0.00243000
 N          1.49638295    0.19989100    0.06303900
 H          4.01683283    2.13231802   -0.56351203
 H          1.69412994    2.08555198   -0.77977300
 H          4.96127605    0.45059600    0.98954803
 H          4.18118620   -1.59989595   -0.15901200
 H          1.43470597   -1.81143904    0.61092800
 H          4.19889307    0.60105902   -1.42638397
 H          1.91404200    0.73397702   -1.90753198
 C          3.02707195    1.00099599    1.79047298
 H          3.57583904   -1.61349404    1.50188398
 H          2.02422595   -1.48507202   -1.03749204
 C          1.53800297    0.74735498    1.43156099
 H          3.21463203    2.07478905    1.85470796
 H          3.24254107    0.56050497    2.76543498
 H          0.95655102    1.66669500    1.44351900
 H          1.07518995    0.01409200    2.09184194
