48
wb97x-d4 ma-def2-tzvp(-f) cpcm(dmso) E: -1056.429600052577, G: -1056.0527067
 C         -2.92976999   -0.03652400    1.05174994
 C         -2.12934089    1.24587297    0.85036099
 O         -2.92070293    2.35251999    1.24020505
 C         -1.66615498    1.37752199   -0.59458703
 O         -0.82268202    2.51742601   -0.66209900
 C         -0.96018398    0.10589900   -1.05482304
 C         -1.78721297   -1.13919401   -0.71866101
 C         -1.08985305   -2.46480608   -0.98166698
 O         -0.68673599   -2.48078799   -2.35437202
 O         -2.13037300   -1.14530301    0.65928000
 O         -0.59694999    0.21239901   -2.37854695
 O         -4.11678600    0.04355300    0.32853901
 H         -2.69145107   -1.08651996   -1.33868301
 H         -3.13271189   -0.20020001    2.11512303
 H         -2.54133105    1.51323402   -1.24070406
 H          0.08831600    0.05526200   -0.41293001
 C         -5.02377319   -1.02126706    0.61802202
 H         -2.38277793    3.14512897    1.11838996
 H         -0.22799300   -2.57179189   -0.32031801
 H         -1.79235303   -3.27718306   -0.77539098
 H         -0.42380500   -0.69210202   -2.70835996
 H         -0.81633401    2.84571600   -1.56855500
 H         -0.02103100   -3.16712093   -2.47698307
 H         -4.62893820   -1.97952998    0.26952100
 H         -5.95046616   -0.79557300    0.09195400
 H         -5.21601105   -1.07617998    1.69492495
 H         -1.24898195    1.16783702    1.49672604
 C          3.62177706   -1.01065695    0.29587999
 C          2.09742904   -1.16951096    0.05112000
 C          3.90040898    0.43608299    0.71304297
 C          2.97437596    0.80111802    1.87715495
 C          1.51011801    0.80096298    1.36430895
 N          1.50729203    0.18097900    0.02775900
 H          4.17368507   -1.25390601   -0.61434603
 H          1.88889802   -1.64679694   -0.90630502
 H          4.94369888    0.54724598    1.01293695
 H          3.08607292    0.07862800    2.68837595
 H          1.11250997    1.80933499    1.25874102
 H          3.93164706   -1.70737100    1.07660198
 H          1.61226404   -1.72619402    0.85203999
 C          3.58838511    1.35361397   -0.47311100
 H          3.21638894    1.79065895    2.26830912
 H          0.85393500    0.21697100    2.00882006
 C          2.15591311    1.03699601   -0.98049402
 H          4.30020618    1.19321501   -1.28454304
 H          3.65169907    2.40025902   -0.16791800
 H          2.16612101    0.48567301   -1.91969502
 H          1.55356705    1.93440795   -1.09679794
