48
wb97x-d4 ma-def2-tzvp(-f) cpcm(dmso) E: -1056.43227602907, G: -1056.0551623200001
 C         -2.69477797    0.18441001    0.97239703
 C         -2.00990200    1.44561803    0.43859801
 O         -2.82228589    2.59199190    0.61700398
 C         -1.62969995    1.26863003   -1.02997994
 O         -0.82646799    2.32920694   -1.51754606
 C         -0.86159301   -0.02715700   -1.23537004
 C         -1.65333903   -1.19821596   -0.66849297
 C         -0.98230302   -2.55351496   -0.78630900
 O         -1.87768996   -3.59485698   -0.41825500
 O         -1.90121400   -0.96116501    0.71584201
 O         -0.47724101   -0.24325700   -2.53877497
 O         -3.95516992    0.11197500    0.37301600
 H         -2.60357690   -1.24036503   -1.21544695
 H         -2.78888893    0.22554800    2.06229401
 H         -2.54792595    1.18798995   -1.62757897
 H          0.17827199    0.07878400   -0.57228702
 C         -4.80010509   -0.88794702    0.94591999
 H         -3.71166205    2.36513495    0.31090400
 H         -0.69726598   -2.72789311   -1.82403398
 H         -0.08281200   -2.58601499   -0.16355400
 H         -0.28533199    0.61622202   -2.94632411
 H         -1.38660097    3.10717797   -1.62470496
 H         -2.11342311   -3.46545291    0.50866199
 H         -4.41683722   -1.88896000    0.73154497
 H         -5.78274107   -0.76718998    0.49218699
 H         -4.87313414   -0.74812001    2.02946997
 H         -1.10411406    1.61198294    1.02543402
 C          3.37195301    1.74390304    0.44086301
 C          1.98049605    1.60022795   -0.22865599
 C          3.93451691    0.34273699    0.69907200
 C          3.84614992   -0.46347699   -0.60113299
 C          2.34932804   -0.70700502   -0.92376399
 N          1.55719197    0.19510500   -0.06956100
 H          3.28000689    2.29281497    1.38043404
 H          1.23216796    2.23633599    0.23867500
 H          4.97061682    0.40546301    1.03530002
 H          4.32310009    0.08331200   -1.41711795
 H          2.04688096   -1.72768700   -0.69418401
 H          4.02891922    2.31135297   -0.22037999
 H          2.01113105    1.81318700   -1.29629803
 C          3.07105803   -0.34050700    1.76488400
 H          4.34839392   -1.42689502   -0.49912301
 H          2.11025000   -0.48746401   -1.96380198
 C          1.58239901   -0.22074300    1.34658396
 H          3.20701194    0.13513900    2.73757601
 H          3.34910989   -1.39238095    1.85971701
 H          1.05287194    0.54017299    1.91873503
 H          1.05427206   -1.16815305    1.43756104
