48
wb97x-d4 ma-def2-tzvp(-f) cpcm(dmso) E: -1056.429848291607, G: -1056.0525108400002
 C         -2.63858891    0.87698197    0.58121502
 C         -1.87834203    1.56342494   -0.55919701
 O         -2.60780907    2.65847492   -1.08079100
 C         -1.52518702    0.56189299   -1.65848804
 O         -0.63370699    1.09947205   -2.62019110
 C         -0.87025797   -0.67086399   -1.05748701
 C         -1.76428401   -1.26552498    0.02110300
 C         -1.24201703   -2.52667093    0.70098698
 O         -1.30747902   -3.65972996   -0.15334100
 O         -1.94809997   -0.27762800    1.03115296
 O         -0.47024301   -1.60432005   -1.98752296
 O         -3.91774511    0.58177000    0.10437600
 H         -2.72436404   -1.51322401   -0.44852999
 H         -2.69400597    1.53073597    1.45742595
 H         -2.44909191    0.22414000   -2.14748096
 H          0.15984300   -0.27500799   -0.49539900
 C         -4.82820177    0.17485000    1.12803900
 H         -3.51434898    2.35547590   -1.23114395
 H         -0.22656401   -2.37834811    1.08078802
 H         -1.89199197   -2.73291397    1.55278504
 H         -0.17127700   -1.14030302   -2.78551793
 H         -1.12418103    1.71387303   -3.17917395
 H         -0.72478497   -3.50275302   -0.90669698
 H         -4.87068701    0.93020099    1.91948903
 H         -4.52869606   -0.78581703    1.55503094
 H         -5.80619383    0.07776100    0.65889603
 H         -0.95610100    1.97684097   -0.14704600
 C          2.83076406    0.70150298    1.93980396
 C          1.43417394    0.22801700    1.45949900
 C          3.83402491    0.51223803    0.79740697
 C          3.46432495    1.46465695   -0.34287301
 C          1.96648896    1.26090801   -0.68988198
 N          1.51050997    0.03636500   -0.00231400
 H          3.12459397    0.11823700    2.81415892
 H          1.15271294   -0.72464401    1.90509796
 H          4.84683418    0.71653003    1.14812601
 H          3.62443805    2.50340700   -0.04926000
 H          1.80230200    1.12987804   -1.75684094
 H          2.78742909    1.75276005    2.23207998
 H          0.65595800    0.96143699    1.66460598
 C          3.73366404   -0.92803502    0.28402001
 H          4.08182478    1.26143205   -1.22029495
 H          1.35178697    2.08568501   -0.33222899
 C          2.33991194   -1.12553298   -0.36905500
 H          3.86038899   -1.63174105    1.10930705
 H          4.50819492   -1.13060796   -0.45731801
 H          1.84820294   -2.02894998   -0.01078100
 H          2.39587593   -1.15632606   -1.45653999
