48
wb97x-d4 ma-def2-tzvp(-f) cpcm(dmso) E: -1056.429154307217, G: -1056.0523861600002
 C         -2.75280190    0.19585700    0.96128798
 C         -2.03828001    1.44388604    0.42401001
 O         -2.84347296    2.60780597    0.48796299
 C         -1.65546596    1.23665798   -1.03414595
 O         -0.84873098    2.28304601   -1.54659700
 C         -0.88184202   -0.06188100   -1.20124197
 C         -1.65558302   -1.22950697   -0.59932500
 C         -0.94624501   -2.57033896   -0.68592101
 O         -1.80972695   -3.64546895   -0.33687600
 O         -1.92581999   -0.94458002    0.76967800
 O         -0.49620801   -0.30596599   -2.49979091
 O         -3.98587108    0.06996500    0.32434401
 H         -2.59742188   -1.30483603   -1.15942502
 H         -2.88455892    0.26444200    2.04703689
 H         -2.57225394    1.14256096   -1.63066494
 H          0.15567100    0.06934300   -0.54334497
 C         -4.80369902   -0.95627701    0.88673198
 H         -2.82009697    2.95122600    1.38847494
 H         -0.54417300   -2.69953799   -1.69458902
 H         -0.12012300   -2.60169005    0.02597100
 H         -0.30959100    0.54518801   -2.92671990
 H         -1.40535998    3.06242490   -1.66112804
 H         -2.45469999   -3.75783491   -1.04512405
 H         -4.90973997   -0.80953699    1.96713901
 H         -4.38003778   -1.94582295    0.69501799
 H         -5.77965212   -0.87794298    0.40926799
 H         -1.12819898    1.57710004    1.01750195
 C          3.35931301    1.77032995    0.37970901
 C          1.96325600    1.59783900   -0.27333701
 C          3.92190099    0.38189599    0.69863099
 C          3.82491112   -0.48338500   -0.56231302
 C          2.32585311   -0.73948902   -0.86419201
 N          1.54011202    0.20215200   -0.04822600
 H          3.27381802    2.36223507    1.29342604
 H          1.21775699    2.25453210    0.16929001
 H          4.96004200    0.45864099    1.02558196
 H          4.29786110    0.02383700   -1.40571296
 H          2.02490091   -1.74815798   -0.58482200
 H          4.01255798    2.30552912   -0.31146199
 H          1.98705804    1.76209605   -1.34960496
 C          3.06413889   -0.25067100    1.79966497
 H          4.32635403   -1.44183397   -0.41807601
 H          2.08054590   -0.56860000   -1.91189206
 C          1.57285297   -0.14814100    1.38518703
 H          3.20603299    0.26930901    2.74854589
 H          3.34179401   -1.29729903    1.94134104
 H          1.04922199    0.64003903    1.92481995
 H          1.04369700   -1.08914196    1.52390695
