48
wb97x-d4 ma-def2-tzvp(-f) cpcm(dmso) E: -1056.430072323305, G: -1056.05219977
 C         -2.80288506    0.83485901    0.57495201
 C         -1.98348498    1.59701502   -0.46522799
 O         -2.73474598    2.70466399   -0.92432803
 C         -1.57685399    0.68451101   -1.61623895
 O         -0.73314899    1.43117905   -2.47583795
 C         -0.90731502   -0.57681298   -1.07779205
 C         -1.79695106   -1.23424697   -0.02064300
 C         -1.20817494   -2.46832609    0.64429802
 O         -0.94221097   -3.42254591   -0.38927600
 O         -2.06589389   -0.30103999    1.01528001
 O         -0.51302600   -1.39922404   -2.10735393
 O         -4.03125811    0.48655799    0.02289400
 H         -2.72724295   -1.52524304   -0.52537900
 H         -2.94027090    1.44190395    1.47575605
 H         -2.47722912    0.36325401   -2.15458703
 H          0.11274500   -0.20411500   -0.50746799
 C         -4.94364309   -0.05456500    0.97911602
 H         -2.19382191    3.16335797   -1.57960296
 H         -0.29218799   -2.21711802    1.18345106
 H         -1.93674302   -2.86208797    1.35850704
 H         -0.44963300   -2.30986094   -1.75393295
 H         -0.71660000    1.00270700   -3.33950305
 H         -0.36910400   -4.11284018   -0.03604600
 H         -5.90006781   -0.16931100    0.47067800
 H         -5.05666113    0.62965697    1.82689703
 H         -4.60251522   -1.02854395    1.34050095
 H         -1.07812405    1.94453704    0.04483700
 C          2.84238410    0.71320200    1.92607999
 C          1.43626797    0.26713499    1.44460702
 C          3.82432604    0.58615500    0.75731897
 C          3.42227602    1.58547902   -0.33035001
 C          1.92826498    1.35730302   -0.68591899
 N          1.49433398    0.11487200   -0.02079800
 H          3.15173888    0.08250700    2.76129103
 H          1.15223598   -0.69428802    1.86842000
 H          4.84131718    0.78769100    1.09781897
 H          3.55526400    2.61062193    0.01950800
 H          1.77044404    1.23857701   -1.75506198
 H          2.80594897    1.74668598    2.27640510
 H          0.66738200    1.00229001    1.67756295
 C          3.73474097   -0.83079398    0.18077700
 H          4.04160690    1.44703102   -1.21887195
 H          1.29551899    2.16463208   -0.32086200
 C          2.32004809   -1.03290200   -0.42870501
 H          3.90968609   -1.56983399    0.96522802
 H          4.48517513   -0.97784603   -0.59759301
 H          1.84821105   -1.94455504   -0.06307600
 H          2.33987093   -1.05228400   -1.51773000
