48
wb97x-d4 ma-def2-tzvp(-f) cpcm(dmso) E: -1056.429627927487, G: -1056.05214045
 C         -2.76477098    0.28243500    0.98037201
 C         -2.03237700    1.48646402    0.38475999
 O         -2.82971001    2.65645909    0.42818400
 C         -1.58484900    1.18776703   -1.04394805
 O         -0.72769701    2.19158411   -1.56242704
 C         -0.84662998   -0.13951001   -1.12445903
 C         -1.67164505   -1.24931002   -0.48065299
 C         -1.00550497   -2.61431193   -0.46794099
 O         -1.92946303   -3.64575100   -0.14194800
 O         -1.97542500   -0.88721299    0.86290699
 O         -0.44307601   -0.47115600   -2.39841294
 O         -3.99085593    0.17719400    0.31764099
 H         -2.59799504   -1.32589400   -1.06610298
 H         -2.91889691    0.41395101    2.05626988
 H         -2.47496009    1.08866501   -1.68029702
 H          0.19028300   -0.00192500   -0.46441701
 C         -4.87841415   -0.77360898    0.90891302
 H         -3.70518994    2.42133403    0.09002900
 H         -0.53637397   -2.79861999   -1.43820500
 H         -0.23798600   -2.64049292    0.30553800
 H         -0.24638000    0.34505299   -2.88380599
 H         -1.25443399    2.98311996   -1.72682905
 H         -2.52437305   -3.76721191   -0.89126599
 H         -5.00150394   -0.56558698    1.97688997
 H         -4.50162411   -1.79103804    0.77599800
 H         -5.83609390   -0.66858202    0.40103799
 H         -1.15499902    1.68635798    1.00169599
 C          3.69578195   -1.02104604    0.30523700
 C          2.16805911   -1.18921995    0.09885000
 C          3.97654200    0.44301599    0.65666503
 C          3.04147911    0.86414999    1.79556596
 C          1.58545697    0.87384897    1.26219106
 N          1.58626401    0.15936400   -0.02765000
 H          4.23163080   -1.30070698   -0.60418802
 H          1.93668103   -1.74716306   -0.80823100
 H          5.01779699    0.56757098    0.95768100
 H          3.12922597    0.16756199    2.63207197
 H          1.22775900    1.88588905    1.07474399
 H          4.01953888   -1.68561804    1.10788500
 H          1.69704103   -1.66914201    0.95525301
 C          3.67136908    1.30203795   -0.57444203
 H          3.29448509    1.86214101    2.15711188
 H          0.89572197    0.36262399    1.93328595
 C          2.25387096    0.93751401   -1.08774900
 H          4.39716291    1.11681795   -1.36792505
 H          3.71292210    2.36232805   -0.31614101
 H          2.29178691    0.30921501   -1.97735202
 H          1.65037405    1.81864500   -1.29238701
