48
wb97x-d4 ma-def2-tzvp(-f) cpcm(dmso) E: -1056.428353885584, G: -1056.05194318
 C         -2.73778009   -0.06491200    1.06389201
 C         -2.06191897    1.27636099    0.76573402
 O         -2.88493395    2.36557102    1.14043200
 C         -1.66618001    1.36979496   -0.70676398
 O         -0.85062402    2.49700499   -0.97694498
 C         -0.90152299    0.12760000   -1.13520098
 C         -1.70723498   -1.12317395   -0.80311501
 C         -1.06820405   -2.45953989   -1.16597104
 O         -0.99560899   -2.66590810   -2.56941104
 O         -1.94120896   -1.14345706    0.60190201
 O         -0.48656601    0.15514100   -2.44900298
 O         -3.99898410   -0.03581200    0.46484199
 H         -2.65721011   -1.04435897   -1.34679103
 H         -2.82629609   -0.22156300    2.14364409
 H         -2.57566500    1.40803397   -1.32153702
 H          0.13956200    0.10073800   -0.45554799
 C         -4.84630299   -1.11532199    0.86336100
 H         -3.76890111    2.19489193    0.78614801
 H         -0.08563900   -2.55683494   -0.69849098
 H         -1.70989394   -3.24511003   -0.76380497
 H         -0.28091699    1.07116997   -2.69379592
 H         -1.40338302    3.28705502   -0.94454402
 H         -0.44215199   -1.97249901   -2.94936490
 H         -4.92658377   -1.15168297    1.95472300
 H         -4.46085978   -2.06865406    0.49274299
 H         -5.82602501   -0.92269802    0.42849299
 H         -1.16254699    1.34476900    1.37917602
 C          3.56531811    1.50093496   -0.05103600
 C          2.16195297    1.29326499   -0.67905802
 C          3.90846491    0.26753899    0.79005200
 C          3.68023705   -0.97825599   -0.07122300
 C          2.15831590   -1.11990702   -0.32379699
 N          1.52431095    0.16516900    0.02668200
 H          3.56529403    2.39725900    0.57278699
 H          1.52507102    2.16684699   -0.56270498
 H          4.94556713    0.31270799    1.12559903
 H          4.21315718   -0.88489902   -1.01974499
 H          1.71710706   -1.88446796    0.31389901
 H          4.29565287    1.64235795   -0.84934199
 H          2.22216606    1.02615499   -1.73395503
 C          2.96153593    0.21295200    1.99434805
 H          4.03928709   -1.87669098    0.43342501
 H          1.93409503   -1.33911395   -1.36792505
 C          1.50603998    0.37971500    1.48615301
 H          3.18455791    1.01309800    2.70186210
 H          3.06934690   -0.74076098    2.51539207
 H          1.12959695    1.38644397    1.66314805
 H          0.82650602   -0.34695399    1.93063295
