48
wb97x-d4 ma-def2-tzvp(-f) cpcm(dmso) E: -1056.428272217512, G: -1056.0518528900002
 C         -2.74643207   -0.26940399    1.06030703
 C         -2.06449199    1.09700096    0.97120702
 O         -2.87797904    2.12319493    1.50886798
 C         -1.67103601    1.41122997   -0.47119001
 O         -0.84601903    2.56031990   -0.56596500
 C         -0.91776597    0.24735799   -1.09511399
 C         -1.70749700   -1.04684997   -0.93501300
 C         -1.04944897   -2.31161094   -1.47621799
 O         -0.97991902   -2.32688308   -2.89477110
 O         -1.94357300   -1.26716399    0.45152801
 O         -0.54113501    0.46574900   -2.40294600
 O         -4.00058603   -0.14750899    0.45814300
 H         -2.65763211   -0.90701801   -1.46619499
 H         -2.84706903   -0.58598799    2.10345507
 H         -2.58266592    1.55164194   -1.06803000
 H          0.14187901    0.13444200   -0.45111799
 C         -4.84819078   -1.27835000    0.67328697
 H         -3.76446390    2.01495099    1.13696599
 H         -0.06339500   -2.45488596   -1.02771497
 H         -1.67677605   -3.15449190   -1.18185902
 H         -0.35428300    1.40954900   -2.52568889
 H         -1.38871598    3.33839893   -0.38997099
 H         -0.43221799   -1.58526695   -3.18029308
 H         -4.45141315   -2.16265011    0.16779400
 H         -5.82215309   -1.02494895    0.25719401
 H         -4.94523621   -1.48199105    1.74481297
 H         -1.16542101    1.06432998    1.58679104
 C          3.67151594   -0.99605203   -0.04496500
 C          2.15167809   -1.11269999   -0.32826701
 C          3.91081500    0.25840101    0.79991901
 C          2.96210790    0.22893700    2.00258398
 C          1.50745404    0.38372999    1.48887599
 N          1.52792203    0.17565000    0.02827700
 H          4.22369003   -0.92979199   -0.98460799
 H          1.94850695   -1.30778003   -1.38110006
 H          4.94767904    0.29568201    1.13741398
 H          3.06950903   -0.71335900    2.54384089
 H          1.11952698    1.38539100    1.66985703
 H          4.00397396   -1.89164400    0.48244700
 H          1.68319499   -1.88230503    0.28400600
 C          3.58572006    1.48706496   -0.05507600
 H          3.18419695    1.04418004    2.69299006
 H          0.83507198   -0.35289800    1.92808795
 C          2.17515111    1.29991305   -0.67400199
 H          4.31493092    1.60464501   -0.85822803
 H          3.60608792    2.39069891    0.55771202
 H          2.22467589    1.03809500   -1.73068404
 H          1.55021596    2.18098807   -0.54734701
