48
wb97x-d4 ma-def2-tzvp(-f) cpcm(dmso) E: -1056.427737867654, G: -1056.05180592
 C         -2.85091305    0.56643897    0.72910398
 C         -1.99962103    1.54646897   -0.08640100
 O         -2.70216799    2.72505498   -0.43952501
 C         -1.54702997    0.88033098   -1.37663805
 O         -0.61446798    1.66097796   -2.10783410
 C         -0.87838399   -0.45371199   -1.08849394
 C         -1.73656297   -1.33087504   -0.18353701
 C         -1.07231796   -2.62579107    0.23263900
 O         -2.09383988   -3.51598096    0.67635101
 O         -2.08747196   -0.60440600    0.99046099
 O         -0.48787200   -1.12212300   -2.22587109
 O         -4.02396202    0.29460701    0.02793200
 H         -2.64042997   -1.58020902   -0.75374800
 H         -3.07722211    0.97825801    1.71896803
 H         -2.43019009    0.67489398   -1.99498105
 H          0.15567900   -0.17009901   -0.46904600
 C         -4.97257185   -0.45636001    0.78618801
 H         -2.70249796    3.32193303    0.31800899
 H         -0.53534698   -3.04569292   -0.62321901
 H         -0.36118099   -2.42950702    1.03918302
 H         -0.24512300   -0.46689799   -2.89880896
 H         -1.08321702    2.41279602   -2.48969197
 H         -1.66891301   -4.31816196    1.00007904
 H         -5.18024921    0.04337500    1.73860395
 H         -4.60935020   -1.46941698    0.97928703
 H         -5.88379383   -0.50369799    0.19117600
 H         -1.12580502    1.79436100    0.52192801
 C          3.27896905   -0.38974601    1.59030199
 C          1.87484396   -0.79014802    1.06730199
 C          3.92716694    0.55117601    0.56886703
 C          3.13828897    1.86362195    0.54667997
 C          1.63466203    1.53244996    0.35804099
 N          1.53983700    0.11628500   -0.04587300
 H          3.87896895   -1.29115403    1.72567701
 H          1.86412597   -1.80649495    0.67545301
 H          4.96817684    0.73967302    0.83579201
 H          3.26800394    2.41020608    1.48222899
 H          1.17337298    2.13824010   -0.41883299
 H          3.19015098    0.10763900    2.55826497
 H          1.10631502   -0.68693000    1.83267498
 C          3.84438992   -0.09507600   -0.81820899
 H          3.48621106    2.49960804   -0.27005699
 H          1.07592905    1.64244497    1.28700602
 C          2.35308504   -0.16769600   -1.23926997
 H          4.27620697   -1.09773004   -0.79432303
 H          4.39429712    0.49350899   -1.55430496
 H          2.08001399   -1.15583205   -1.60799301
 H          2.10181093    0.57939202   -1.99154103
