48
wb97x-d4 ma-def2-tzvp(-f) cpcm(dmso) E: -1056.430079803295, G: -1056.05122363
 C         -2.92200899    0.17089599    1.00282204
 C         -2.10312295    1.37709296    0.55573100
 O         -2.88177109    2.54964709    0.70269102
 C         -1.62704802    1.20368505   -0.88113898
 O         -0.77701700    2.30048299   -1.17968297
 C         -0.92224598   -0.13821401   -1.05107105
 C         -1.76114595   -1.28300595   -0.47648600
 C         -1.06400096   -2.63878989   -0.45317200
 O         -0.55264598   -2.97708297   -1.74624801
 O         -2.12870097   -1.00143194    0.86578602
 O         -0.53468698   -0.32012400   -2.35930490
 O         -4.09452820    0.10981700    0.25468799
 H         -2.65525889   -1.35651803   -1.10991001
 H         -3.14672208    0.23280400    2.07270002
 H         -2.49577093    1.20385098   -1.54986894
 H          0.11612900   -0.03520400   -0.39001599
 C         -5.01473618   -0.87245202    0.73226500
 H         -2.34056401    3.29090691    0.40221500
 H         -0.21819100   -2.61342502    0.23302400
 H         -1.76937306   -3.39492512   -0.10176700
 H         -0.36455899   -1.27553594   -2.48361707
 H         -0.73898500    2.41182590   -2.13664699
 H         -1.24898601   -3.41719699   -2.24897504
 H         -5.93392181   -0.74515998    0.16199300
 H         -5.21767807   -0.71850097    1.79748797
 H         -4.62589216   -1.88279200    0.57871997
 H         -1.23093796    1.42095804    1.21581101
 C          3.55328703   -0.87188202    0.91080803
 C          2.07194090   -1.09619498    0.49823400
 C          3.91927099    0.59325898    0.65919101
 C          3.00165391    1.48394096    1.50196505
 C          1.52514505    1.20309103    1.10684896
 N          1.52866197    0.19176701    0.03591800
 H          4.19803810   -1.53106105    0.32705101
 H          1.98339903   -1.80655599   -0.32327199
 H          4.96170807    0.76925200    0.93045700
 H          3.14156795    1.27464294    2.56389594
 H          1.03086400    2.09200096    0.72014302
 H          3.68172789   -1.11996806    1.96589804
 H          1.46282196   -1.43111300    1.33704197
 C          3.70298004    0.91272700   -0.82213199
 H          3.23274803    2.53682709    1.33054602
 H          0.95042002    0.79953200    1.93983901
 C          2.20964694    0.67169899   -1.17692804
 H          4.33693314    0.27746499   -1.44325304
 H          3.96195889    1.95285404   -1.02803898
 H          2.08952403   -0.08809800   -1.94765401
 H          1.71007502    1.58420599   -1.49458897
