48
wb97x-d4 ma-def2-tzvp(-f) cpcm(dmso) E: -1056.429264243582, G: -1056.05087942
 C         -2.91683292    0.05162400    0.94562101
 C         -2.12610292    1.32434106    0.63658500
 O         -2.89586306    2.50514293    0.79658598
 C         -1.62075996    1.32345998   -0.80138999
 O         -0.75705200    2.42307496   -1.03267503
 C         -0.88622999    0.03023900   -1.11497295
 C         -1.71743095   -1.18484497   -0.69056398
 C         -1.00571203   -2.52629399   -0.82433897
 O         -0.48656401   -2.71141291   -2.14457011
 O         -2.09236789   -1.07596898    0.67459500
 O         -0.47153100    0.00180500   -2.42743897
 O         -4.08940887    0.04359000    0.19638000
 H         -2.60787702   -1.19049895   -1.33293402
 H         -3.13935590   -0.01795400    2.01614308
 H         -2.48430610    1.37132597   -1.47847998
 H          0.13779201    0.04669200   -0.43553999
 C         -4.98769903   -1.00210202    0.56927001
 H         -2.90856791    2.74408793    1.73049200
 H         -0.16267900   -2.57247710   -0.13614000
 H         -1.70439005   -3.32405901   -0.56322801
 H         -0.28809601   -0.93201202   -2.65434694
 H         -1.22692502    3.21508098   -0.74000299
 H         -1.18502998   -3.07377410   -2.70358610
 H         -5.90809107   -0.84042197    0.00964000
 H         -5.19792318   -0.95861101    1.64344096
 H         -4.57461691   -1.98312604    0.31893599
 H         -1.26743996    1.34007394    1.31398106
 C          3.67234111   -0.97974902    0.30838701
 C          2.15047908   -1.15674496    0.06278900
 C          3.92933989    0.46814701    0.73565298
 C          2.98362088    0.81843603    1.88919401
 C          1.52762198    0.81663501    1.35318100
 N          1.54907203    0.18798400    0.02116000
 H          4.22822285   -1.20873702   -0.60313803
 H          1.94764900   -1.65064895   -0.88767898
 H          4.96729517    0.59049499    1.04924798
 H          3.08612299    0.08915400    2.69562197
 H          1.13423204    1.82545996    1.23352098
 H          3.99017191   -1.67840898    1.08409703
 H          1.67148495   -1.70605898    0.87234300
 C          3.62031102    1.38602304   -0.45123300
 H          3.21446395    1.80558896    2.29282808
 H          0.85773200    0.23925100    1.98985696
 C          2.20376492    1.04296303   -0.98474097
 H          4.34865189    1.24398100   -1.25135696
 H          3.65781593    2.43217111   -0.13987400
 H          2.24246001    0.47922999   -1.91580999
 H          1.58820796    1.92785203   -1.12551296
