48
wb97x-d4 ma-def2-tzvp(-f) cpcm(dmso) E: -1056.426344775593, G: -1056.0484552700002
 C         -2.88420892    0.04082100    0.96747798
 C         -2.03660297    1.27441394    0.67387903
 O         -2.73980999    2.47437191    0.94723898
 C         -1.53503799    1.27303505   -0.77063102
 O         -0.63121498    2.34188509   -0.98712897
 C         -0.87015003   -0.04940700   -1.12374604
 C         -1.79705405   -1.21138501   -0.74449003
 C         -1.27669799   -2.62070894   -0.96586198
 O         -0.21899900   -2.96270704   -0.08845200
 O         -2.16048908   -1.12892199    0.62872702
 O         -0.48113400   -0.03598000   -2.44561195
 O         -4.07472420    0.16511001    0.24935400
 H         -2.68656993   -1.09132802   -1.37789702
 H         -3.08639789   -0.04973900    2.03940296
 H         -2.39949107    1.36992800   -1.44290400
 H          0.20337500   -0.09589600   -0.46058300
 C         -5.06854486   -0.79221499    0.62162799
 H         -3.60164595    2.41238308    0.51173902
 H         -2.12356591   -3.30467510   -0.84396303
 H         -0.90368599   -2.73944998   -1.98553097
 H         -0.18928900   -0.91581702   -2.72151899
 H         -1.07713604    3.15118289   -0.70454699
 H         -0.55328399   -2.88992691    0.81403702
 H         -4.76078510   -1.80207300    0.33816800
 H         -5.97895098   -0.52384102    0.08757000
 H         -5.24781799   -0.75296402    1.70099795
 H         -1.18228602    1.26071298    1.35107195
 C          3.75212002   -0.93461102    0.31640899
 C          2.23394203   -1.19227803    0.13333400
 C          3.96656990    0.55816197    0.58174300
 C          3.02105498    0.99436498    1.70510900
 C          1.56373298    0.90008599    1.18780899
 N          1.57813001    0.11523300   -0.06385600
 H          4.29610205   -1.23990905   -0.58025801
 H          2.02142000   -1.81347895   -0.73368102
 H          5.00322294    0.75033402    0.86291701
 H          3.15197301    0.35117501    2.57805109
 H          1.14666605    1.87797201    0.95364398
 H          4.11521912   -1.53533101    1.15220296
 H          1.78772902   -1.65217996    1.01213896
 C          3.60427690    1.33257401   -0.68879902
 H          3.22606897    2.02248001    2.00857496
 H          0.91481203    0.38699600    1.89699805
 C          2.21020508    0.85942698   -1.17243099
 H          4.33573389    1.15037096   -1.47811604
 H          3.58622098    2.40554309   -0.48479101
 H          2.28456092    0.17618500   -2.01744294
 H          1.56244302    1.69007695   -1.43798101
