48
wb97x-d4 ma-def2-tzvp(-f) cpcm(dmso) E: -1056.431798818849, G: -1056.05453813
 C         -2.75654602    0.16840599    0.94013101
 C         -2.02531409    1.42212105    0.45040199
 O         -2.80873990    2.58579206    0.64636898
 C         -1.62744498    1.26999497   -1.01600099
 O         -0.80104601    2.32599306   -1.47285795
 C         -0.88369602   -0.03801500   -1.23339796
 C         -1.72878599   -1.19842803   -0.71968699
 C         -1.14651203   -2.58919001   -0.89574802
 O         -0.01026300   -2.83679795   -0.07958200
 O         -2.00280499   -0.99885499    0.66351098
 O         -0.48068801   -0.23471799   -2.53435802
 O         -4.01122618    0.15604000    0.32360801
 H         -2.66314197   -1.17316902   -1.29674399
 H         -2.86451793    0.18415800    2.02934098
 H         -2.53914309    1.21856701   -1.62698305
 H          0.15443601    0.03424100   -0.55209398
 C         -4.90637207   -0.81290299    0.87276900
 H         -3.69973207    2.38987088    0.32400900
 H         -1.93629003   -3.31651807   -0.68352699
 H         -0.83546603   -2.71281099   -1.93398094
 H         -0.26867500    0.62909001   -2.92191792
 H         -1.34534204    3.11746192   -1.56123805
 H         -0.32034099   -2.95702791    0.82555300
 H         -4.56302404   -1.82712805    0.65325999
 H         -5.87600517   -0.64592302    0.40582201
 H         -4.99031401   -0.68121099    1.95653296
 H         -1.12562597    1.54841399    1.05601704
 C          3.34511209    1.70216405    0.46754301
 C          1.95588195    1.56496596   -0.20778400
 C          3.90284705    0.29920399    0.72575903
 C          3.81726098   -0.50529897   -0.57563102
 C          2.32135892   -0.74049097   -0.90857399
 N          1.52626300    0.16077501   -0.05516300
 H          3.25127411    2.24974489    1.40783596
 H          1.20907104    2.20348692    0.25812599
 H          4.93762016    0.35872099    1.06700206
 H          4.30453587    0.03913600   -1.38731694
 H          2.00226498   -1.75634301   -0.68906200
 H          4.00707197    2.26896310   -0.18942200
 H          1.99192595    1.78201306   -1.27435005
 C          3.03191090   -0.38432801    1.78500199
 H          4.31406879   -1.47131598   -0.46977299
 H          2.09204006   -0.50775403   -1.94808805
 C          1.54630804   -0.25487399    1.36068201
 H          3.16659403    0.08569900    2.76075602
 H          3.30495191   -1.43801296    1.87588799
 H          1.02320695    0.51198798    1.93118596
 H          1.01105702   -1.19589698    1.44617605
