48
wb97x-d4 ma-def2-tzvp(-f) cpcm(dmso) E: -1056.431045360768, G: -1056.05446396
 C         -2.76260996    0.43541101    0.86959302
 C         -1.94935298    1.52629197    0.17156699
 O         -2.66799593    2.74344206    0.08728200
 C         -1.50898004    1.05742204   -1.21382105
 O         -0.57634598    1.93953097   -1.81817603
 C         -0.85343403   -0.31232801   -1.14716601
 C         -1.72747397   -1.30224502   -0.38702601
 C         -1.11515296   -2.67620993   -0.18903400
 O         -2.07318211   -3.58943892    0.33230200
 O         -2.02710009   -0.77648199    0.90276098
 O         -0.47463301   -0.80425298   -2.37435198
 O         -3.97216797    0.31756899    0.18193300
 H         -2.65249395   -1.41942406   -0.96558499
 H         -2.93746090    0.69001102    1.91982198
 H         -2.39786410    0.95451498   -1.85094094
 H          0.18970101   -0.14028300   -0.49386701
 C         -4.92807913   -0.51481700    0.84116799
 H         -3.54462910    2.53953409   -0.26723999
 H         -0.78834897   -3.06987095   -1.15174794
 H         -0.25087601   -2.60780597    0.47703800
 H         -0.23270801   -0.05926900   -2.94661498
 H         -1.04037094    2.74759603   -2.06873107
 H         -2.34248209   -3.26750708    1.20124698
 H         -5.06551695   -0.18895800    1.87742102
 H         -4.60901785   -1.56032503    0.82575202
 H         -5.86492109   -0.41089201    0.29557899
 H         -1.07080197    1.72950196    0.78395498
 C          3.14921403    1.74196804    0.82704800
 C          1.65007603    1.41604102    0.60099298
 C          3.96531010    0.46698999    0.59875202
 C          3.86928201    0.07906600   -0.88016999
 C          2.37217212    0.04137800   -1.28522396
 N          1.57422805    0.09207500   -0.04818400
 H          3.28421593    2.11183810    1.84474504
 H          1.10412896    1.34824598    1.54152501
 H          5.00730991    0.62927902    0.87872201
 H          4.38945818    0.80545801   -1.50671899
 H          2.11524105   -0.87453198   -1.81641102
 H          3.46942306    2.52429295    0.13566500
 H          1.16700995    2.14133501   -0.05009700
 C          3.35850096   -0.65870601    1.44189298
 H          4.32615995   -0.89905101   -1.04427099
 H          2.08932400    0.90089297   -1.89221096
 C          1.94887602   -0.98742300    0.88446802
 H          3.28515410   -0.35000801    2.48673296
 H          3.97741699   -1.55620599    1.39524198
 H          1.19651401   -1.03276396    1.67114997
 H          1.94527900   -1.92088997    0.32323200
