48
wb97x-d4 ma-def2-tzvp(-f) cpcm(dmso) E: -1056.431982560672, G: -1056.05431015
 C         -2.76500893    0.70242399    0.65118802
 C         -1.94721401    1.57002294   -0.31164801
 O         -2.66434097    2.73168397   -0.68946499
 C         -1.53251696    0.75848401   -1.53659701
 O         -0.63832599    1.46182406   -2.38089895
 C         -0.86479199   -0.54092401   -1.11225998
 C         -1.78847206   -1.31093800   -0.17607599
 C         -1.27663195   -2.64941192    0.32419601
 O         -0.19588301   -2.52721405    1.23798203
 O         -2.08248091   -0.50028801    0.95845097
 O         -0.44444901   -1.31679797   -2.16790509
 O         -4.00231409    0.47299600    0.04296800
 H         -2.70621490   -1.51195896   -0.74515098
 H         -2.89549994    1.20814395    1.61313295
 H         -2.43334198    0.47889400   -2.09976792
 H          0.15971000   -0.22626300   -0.48349801
 C         -4.97665024   -0.09000200    0.92378801
 H         -3.55682993    2.45052290   -0.93570501
 H         -2.11274505   -3.18309402    0.78715301
 H         -0.92115003   -3.23606801   -0.52385700
 H         -0.16158600   -0.72748500   -2.88487101
 H         -1.13990998    2.13379192   -2.85742998
 H         -0.54303002   -2.13439107    2.04777288
 H         -5.10281801    0.54604799    1.80611598
 H         -4.68326187   -1.09561396    1.23601699
 H         -5.91218090   -0.13832600    0.36834499
 H         -1.05216706    1.91401994    0.21012700
 C          2.95675993    0.72402102    1.81298399
 C          1.52699006    0.28238100    1.40844500
 C          3.91039610    0.40382200    0.65726101
 C          3.55968308    1.30780196   -0.52792400
 C          2.03668189    1.19837296   -0.79615200
 N          1.53470302    0.03091700   -0.04564900
 H          3.25105810    0.19042499    2.71849394
 H          1.23342705   -0.64294398    1.89578700
 H          4.94505215    0.56389898    0.96476102
 H          3.81020093    2.34786701   -0.31203699
 H          1.81538105    1.04437900   -1.84977996
 H          2.97310901    1.79432702    2.02967596
 H          0.78488898    1.05149806    1.61781299
 C          3.69982195   -1.05506301    0.23705500
 H          4.11917019    1.00152302   -1.41454899
 H          1.49127305    2.07259703   -0.44318199
 C          2.28671408   -1.18896794   -0.38993800
 H          3.78835297   -1.71372294    1.10400105
 H          4.44718504   -1.35977697   -0.49746001
 H          1.74219000   -2.04327989    0.00504400
 H          2.32708311   -1.25015497   -1.47675800
