48
wb97x-d4 ma-def2-tzvp(-f) cpcm(dmso) E: -1056.430766468418, G: -1056.0539339400002
 C         -2.73230410    0.76805001    0.63405198
 C         -1.91912997    1.58783197   -0.37365699
 O         -2.62848997    2.74111700   -0.79001200
 C         -1.52167797    0.72579300   -1.57050395
 O         -0.61692798    1.38234699   -2.44114709
 C         -0.87370801   -0.56957501   -1.10354602
 C         -1.81185400   -1.28488100   -0.13745800
 C         -1.36414504   -2.64140701    0.35299700
 O         -0.15867500   -2.52733397    1.09876704
 O         -2.06083298   -0.43140399    0.97680801
 O         -0.46726599   -1.38759506   -2.13176608
 O         -3.98362494    0.53583503    0.05436700
 H         -2.74657702   -1.45666504   -0.68809199
 H         -2.84075093    1.31233704    1.57751000
 H         -2.42910504    0.44285899   -2.12132692
 H          0.15721001   -0.24309900   -0.49007899
 C         -4.95137310    0.02106900    0.97075498
 H         -3.52792501    2.46053600   -1.01039803
 H         -2.16666293   -3.05401492    0.97371602
 H         -1.22795904   -3.29059291   -0.51756698
 H         -0.17609200   -0.82761401   -2.86870790
 H         -1.10701704    2.04507589   -2.94200993
 H          0.11463900   -3.41371608    1.36058104
 H         -4.67284012   -0.98055702    1.30846298
 H         -5.89883614   -0.02409800    0.43553799
 H         -5.04652119    0.68625200    1.83530796
 H         -1.01837003    1.94479501    0.12808000
 C          2.89503002    0.65135998    1.88780403
 C          1.48075700    0.21395600    1.42711401
 C          3.87207294    0.45240900    0.72443098
 C          3.50380492    1.42951298   -0.39517000
 C          1.99435496    1.27060497   -0.71526498
 N          1.52073801    0.04686600   -0.03899000
 H          3.19232512    0.05076000    2.74940395
 H          1.17903996   -0.73940003    1.85234404
 H          4.89662218    0.62636799    1.05746400
 H          3.69822788    2.45937991   -0.09059900
 H          1.80873895    1.16166306   -1.78093803
 H          2.88290501    1.69979596    2.19347596
 H          0.72564697    0.96406400    1.65898001
 C          3.72263789   -0.97781301    0.19533500
 H          4.09859324    1.22318804   -1.28763795
 H          1.40633702    2.10504198   -0.33594799
 C          2.31649995   -1.12569499   -0.44359800
 H          3.83899498   -1.69475102    1.01114595
 H          4.48290777   -1.19466603   -0.55700898
 H          1.79828095   -2.01767302   -0.10078700
 H          2.36228704   -1.12631798   -1.53222597
