48
wb97x-d4 ma-def2-tzvp(-f) cpcm(dmso) E: -1056.428449218593, G: -1056.0532098
 H          1.68159103    2.07086802   -1.87379897
 C          1.25592399    2.51733899   -0.97473001
 H          2.08754206   -2.23867393   -2.46579909
 H          1.71068501    3.48749399   -0.78696197
 H          0.17590500    2.63091302   -1.09151697
 O          1.27167797   -0.28297400   -0.97664398
 H          3.71415591   -1.60220098   -2.79323006
 C          1.06713498    0.43735799    0.18508300
 C          2.68590212   -1.32478201   -2.56174302
 O          1.54772604    1.71903801    0.18461899
 O          1.30717504    0.43873700    2.60653090
 C          2.66287899   -0.57384902   -1.24619997
 H          1.29321003   -0.30942801   -3.46945500
 C          1.56414902   -0.29620999    1.43265200
 O          2.21912003   -0.52165103   -3.63841009
 H          3.21774101    0.36504599   -1.34575105
 H          1.76947200    1.28533196    2.54563808
 H          2.70069790   -2.34480000   -0.03111100
 H          1.00064802   -1.22941303    1.51651299
 C          3.23391104   -1.38463700   -0.08915700
 C          3.04473805   -0.64096701    1.23282802
 H          4.99611998   -1.99575305    0.43942100
 H          3.63031697    0.28299201    1.20552194
 O          4.61151123   -1.59889102   -0.35308301
 O          3.57088709   -1.39646101    2.31314898
 H          3.03552198   -2.19378209    2.42594600
 H         -3.74971294   -1.05087900   -1.42912102
 H         -1.49467397   -0.42413101   -1.63333905
 C         -3.59205008   -0.03548300   -1.05991602
 C         -2.08057308    0.31332701   -1.08587396
 H         -4.12698698    0.65173203   -1.71740794
 H         -1.89707899    1.30200005   -1.50446999
 H         -3.78852797   -1.99766397    0.92207199
 H         -1.52995300   -1.74829900    0.36761799
 C         -3.42975402   -1.01168299    1.22155094
 C         -1.89553797   -0.94039297    1.00090897
 C         -4.09269190    0.08625000    0.38397500
 N         -1.60990202    0.32937101    0.31065199
 H         -5.17823696   -0.01821600    0.41720501
 H         -0.15064700    0.46774599    0.27224600
 H         -3.66050410   -0.87206000    2.27952790
 H         -1.35316002   -0.94445598    1.94537199
 C         -2.12816405    1.48786902    1.05910301
 C         -3.67561793    1.45261097    0.94040000
 H         -1.70345402    2.39256406    0.62584102
 H         -4.01676416    2.25021291    0.27721199
 H         -1.78957701    1.38875604    2.08995295
 H         -4.11277819    1.62018299    1.92618501
