48
wb97x-d4 ma-def2-tzvp(-f) cpcm(dmso) E: -1056.420617111744, G: -1056.04348781
 H          0.87339300    3.89682198    0.64638001
 C          1.02456605    3.03997302   -0.00702000
 H          0.94139397   -1.96653402   -0.94090599
 H          0.14030200    2.88895702   -0.63001800
 H          1.89888895    3.19615293   -0.63892198
 O          1.89286005    0.69570899   -0.92806202
 H          2.02825189   -2.40197897   -2.25771594
 C          1.22473204    0.67211801    0.28093299
 C          1.47783804   -1.56955099   -1.80488002
 O          1.22712803    1.91732395    0.86421198
 O          1.51871395    0.02866200    2.62357807
 C          2.50594306   -0.52315801   -1.38049400
 H          0.92082602   -0.81531799   -3.51810098
 C          1.79858696   -0.34160101    1.29297495
 O          0.49394000   -1.05551004   -2.68665195
 H          3.06946397   -0.20757499   -2.25963712
 H          1.67241502    0.98002797    2.70865607
 H          3.31557107   -2.16851401   -0.24092799
 H          1.33779395   -1.32106805    1.15074503
 C          3.49785304   -1.09235203   -0.35390401
 C          3.29745698   -0.45584300    1.01378298
 H          5.43091106   -1.30472600   -0.23016100
 H          3.74410796    0.54624701    1.01724195
 O          4.81724787   -0.88321501   -0.84511900
 O          3.93937397   -1.28589201    1.96686804
 H          3.80717993   -0.89036298    2.83780193
 H         -3.67809701   -0.34871301   -1.99873495
 H         -1.44840896    0.41594401   -1.99801004
 C         -3.52162194    0.40427801   -1.22345102
 C         -2.01667905    0.78693402   -1.14640605
 H         -4.09844398    1.29159796   -1.48959196
 H         -1.87968898    1.86324704   -1.05414498
 H         -3.63192701   -2.25112605   -0.29812300
 H         -1.44026005   -1.68601596   -0.87865698
 C         -3.24482298   -1.48295999    0.37323701
 C         -1.72869694   -1.28694403    0.09251300
 C         -3.95092201   -0.14249299    0.14284900
 N         -1.48177803    0.16042601    0.07026300
 H         -5.03355694   -0.27437499    0.17558999
 H          0.08598600    0.38568801    0.07901400
 H         -3.39510489   -1.81998706    1.40094304
 H         -1.11298501   -1.73503697    0.87196600
 C         -1.95026004    0.82264501    1.29439104
 C         -3.50247908    0.84002399    1.23051500
 H         -1.53146398    1.82789898    1.32626700
 H         -3.85647702    1.84702301    1.00045598
 H         -1.57829297    0.25018901    2.14339590
 H         -3.90076709    0.55295402    2.20506692
