48
wb97x-d4 ma-def2-tzvp(-f) cpcm(dmso) E: -1056.421924719504, G: -1056.0434172500002
 H          0.28703299    1.19966102   -2.79844904
 C          0.88940001    2.04003906   -2.44988108
 H          0.86486501   -2.12579203    0.01641500
 H          1.88338995    1.98762798   -2.89463305
 H          0.40745401    2.97965097   -2.71328211
 O          2.06561399    0.06985700   -1.21320605
 H          2.23546290   -3.18251896   -0.31941900
 C          1.28320301    0.85172200   -0.40067101
 C          1.68803000   -2.30022597   -0.66993898
 O          0.98513699    2.04537010   -1.01437902
 O          2.99936199    2.04512811    0.81133699
 C          2.66267896   -1.12764502   -0.67250800
 H          1.81312299   -2.81246901   -2.55167794
 C          1.89120305    1.16979396    0.97487801
 O          1.11423695   -2.52883005   -1.95002198
 H          3.45624804   -1.35000896   -1.38970304
 H          2.71882296    2.78093290    0.25057200
 H          3.54971600   -1.84895003    1.13113904
 H          1.12257600    1.62980604    1.60095704
 C          3.32877111   -0.87703699    0.68161798
 C          2.41884494   -0.09527900    1.64159703
 H          4.39346504    0.72601998    0.38828999
 H          3.00904393    0.19981800    2.51471210
 O          4.57834101   -0.21589801    0.52522898
 O          1.28201604   -0.85391903    2.02564096
 H          1.57683098   -1.60246003    2.55814195
 H         -3.51957703    1.27061999    2.19566107
 H         -1.38605499    1.75943303    1.38108397
 C         -3.05869889    0.37662199    1.77229595
 C         -1.57989705    0.68719798    1.41528106
 H         -3.10218096   -0.41644800    2.52184296
 H         -0.88564003    0.21297200    2.10536408
 H         -3.78283906    1.98119199   -0.23349500
 H         -1.57040298    1.92935705   -0.99373603
 C         -3.51960611    0.98463899   -0.59388798
 C         -2.01239491    0.93477702   -0.96767598
 C         -3.78325701   -0.05975800    0.49558201
 N         -1.32723904    0.14952999    0.06904900
 H         -4.85481215   -0.15198299    0.68000001
 H          0.21188800    0.32121301   -0.18955900
 H         -4.11319017    0.77826399   -1.48607802
 H         -1.84754705    0.43615901   -1.92202997
 C         -1.65838099   -1.27988303   -0.02047400
 C         -3.20629311   -1.40275598    0.03630500
 H         -1.18501198   -1.78052604    0.82277399
 H         -3.47362494   -2.20006204    0.73181599
 H         -1.25317705   -1.66982400   -0.95375001
 H         -3.59693503   -1.66513097   -0.94912398
