48
wb97x-d4 ma-def2-tzvp(-f) cpcm(dmso) E: -1056.419782645156, G: -1056.04340619
 H         -0.15546900    0.95373601   -2.98794103
 C          0.53345603    1.78940701   -2.85495305
 H          2.82567406   -1.91954899   -2.61110997
 H          1.46363997    1.58382106   -3.38557410
 H          0.08123400    2.70523190   -3.23103905
 O          1.74400699   -0.04802700   -1.41922605
 H          1.88647699   -2.73812890   -1.34662700
 C          1.12391102    0.94331902   -0.68357003
 C          2.79622102   -2.15796995   -1.54628396
 O          0.79442698    2.03160405   -1.46302199
 O          3.08716106    2.10297799    0.09074800
 C          2.74081397   -0.84994799   -0.76122999
 H          3.97069001   -3.04767799   -0.29552701
 C          1.91322398    1.43848598    0.53197497
 O          3.96379709   -2.91092706   -1.25356698
 H          3.70767403   -0.34024301   -0.82825100
 H          2.81851792    2.79291892   -0.53031099
 H          1.33771503   -1.47081697    0.72093999
 H          1.26668406    2.11694598    1.09725904
 C          2.34970188   -1.05053794    0.69809097
 C          2.35019588    0.27818400    1.44159603
 H          2.90016007   -2.27565789    2.11870193
 H          3.37612891    0.49290100    1.75570500
 O          3.26261902   -1.97783995    1.27572000
 O          1.50360596    0.12271500    2.57299995
 H          1.68893898    0.83690500    3.19491196
 H         -3.19224405   -2.22544003    1.31787598
 H         -0.97250301   -1.52211201    1.18388999
 C         -3.06598592   -1.52335405    0.49218699
 C         -1.54964495   -1.23076499    0.30724999
 H         -3.47120595   -1.98239994   -0.41185901
 H         -1.14110994   -1.71761703   -0.57848501
 H         -2.94073892   -0.13986801    2.78069496
 H         -0.84850001    0.67935503    2.09800911
 C         -3.04542589    0.52123201    1.91791296
 C         -1.64110804    0.94598103    1.40093803
 C         -3.78099394   -0.19874901    0.78228903
 N         -1.41327596    0.22112200    0.14561801
 H         -4.81940985   -0.38412100    1.06160295
 H          0.09542700    0.50927198   -0.26998201
 H         -3.59201789    1.41110396    2.23425388
 H         -1.59020996    2.01190710    1.17980397
 C         -2.23899794    0.73959100   -0.95064002
 C         -3.71768594    0.67628998   -0.47368500
 H         -2.06774306    0.10845400   -1.82163894
 H         -4.32953691    0.25715801   -1.27407598
 H         -1.92458904    1.75976300   -1.16768706
 H         -4.08370686    1.68136704   -0.25469199
