48
wb97x-d4 ma-def2-tzvp(-f) cpcm(dmso) E: -1056.42110399595, G: -1056.0433838600002
 H          1.73147595    3.61305189    0.86676502
 C          1.34889102    2.84736490    0.19534500
 H          3.20621490   -1.71550405   -2.95801401
 H          0.27423999    2.97930002    0.05231300
 H          1.85934305    2.89730597   -0.76729298
 O          1.35428095    0.42517999   -1.15567803
 H          1.52691400   -1.17056799   -3.18564200
 C          1.13058496    0.46500400    0.19799501
 C          2.28851390   -1.41675997   -2.43992710
 O          1.61480606    1.58913100    0.84295398
 O          1.16344595   -0.74779099    2.30010390
 C          2.59431005   -0.17247599   -1.63178802
 H          1.61076295   -3.23182797   -2.13935208
 C          1.55803895   -0.79085302    0.94467598
 O          1.82474506   -2.46815491   -1.59122097
 H          3.01240993    0.55663300   -2.32990789
 H          1.58880198    0.01143600    2.71950603
 H          4.41642809   -1.00044799   -0.91220200
 H          1.01661694   -1.61978400    0.49054399
 C          3.62163901   -0.36684299   -0.51416898
 C          3.06377912   -1.05684400    0.75080699
 H          3.62763000    1.39807999    0.33755401
 H          3.60053301   -0.63109303    1.60160899
 O          4.24673414    0.87322998   -0.18758400
 O          3.32958889   -2.44876909    0.77401698
 H          2.88726091   -2.82292104   -0.00697500
 H         -3.77669311   -0.17957100   -1.76776004
 H         -1.50763702    0.39950800   -1.74912906
 C         -3.57615399    0.56224000   -0.99232602
 C         -2.05564094    0.86927098   -0.93301201
 H         -4.11608982    1.47570598   -1.24682403
 H         -1.85280001    1.93959701   -0.93191302
 H         -3.68296790   -2.06382608   -0.08575000
 H         -1.42264605   -1.60257399   -0.45307100
 C         -3.33075309   -1.31366301    0.62402201
 C         -1.79848194   -1.12629700    0.45247799
 C         -4.01951885    0.03157100    0.37488601
 N         -1.54427695    0.31878400    0.33343199
 H         -5.10332584   -0.09334800    0.39551699
 H         -0.08277700    0.48518699    0.28554201
 H         -3.54879689   -1.66956103    1.63276505
 H         -1.24696600   -1.49581599    1.31559098
 C         -2.03207803    1.06123400    1.50733805
 C         -3.58402610    1.02231395    1.46038306
 H         -1.64653599    2.07860088    1.45215201
 H         -3.97423601    2.01797199    1.24061203
 H         -1.63178098    0.57189500    2.39430904
 H         -3.96381092    0.71569401    2.43632197
