48
wb97x-d4 ma-def2-tzvp(-f) cpcm(dmso) E: -1056.419672931205, G: -1056.04306491
 H          0.24660200    3.11027789   -2.83557796
 C          0.65436000    2.13553596   -2.57408810
 H          2.86218691   -1.58846700   -2.81552505
 H         -0.05635900    1.35185397   -2.84176111
 H          1.59610105    1.96904695   -3.09811401
 O          1.74330699    0.07295500   -1.37486303
 H          1.93168497   -2.59924603   -1.69070101
 C          1.14808905    0.98289502   -0.52236199
 C          2.83055305   -1.97890902   -1.79667199
 O          0.87175798    2.17756104   -1.15458202
 O          3.13996601    1.94090295    0.43456000
 C          2.74789500   -0.80109799   -0.83041799
 H          4.01201391   -3.02170801   -0.67798603
 C          1.92850602    1.27799904    0.76024199
 O          4.01083422   -2.74457097   -1.60523403
 H          3.70773602   -0.27542201   -0.81024498
 H          2.91657710    2.72885704   -0.07831000
 H          1.33358002   -1.65336096    0.51544201
 H          1.29881203    1.90246904    1.40160894
 C          2.33772707   -1.21796298    0.57630098
 C          2.29140997   -0.01400700    1.51005900
 H          2.87055397   -2.65456700    1.79307997
 H          3.29090810    0.13406201    1.92974401
 O          3.25793695   -2.20469403    1.03257895
 O          1.35556602   -0.32280701    2.53572297
 H          1.49592400    0.28388399    3.27284908
 H         -3.68639112    1.37571299    2.19251990
 H         -1.62617004    1.99420702    1.27153397
 C         -3.13027501    0.49152300    1.87699294
 C         -1.69978797    0.92018503    1.44022906
 H         -3.06988907   -0.19463900    2.72421789
 H         -0.94195801    0.60947102    2.15734410
 H         -4.09497309    1.71552098   -0.30591500
 H         -1.89065599    1.85529101   -1.08225203
 C         -3.70418191    0.72250497   -0.53638202
 C         -2.20468593    0.82202601   -0.93927503
 C         -3.81595898   -0.19117600    0.68845099
 N         -1.42717505    0.25023901    0.16430400
 H         -4.86481380   -0.38571599    0.91822600
 H          0.09928100    0.53791600   -0.18660700
 H         -4.27084684    0.31871101   -1.37684405
 H         -1.98601305    0.24254900   -1.83534205
 C         -1.56810999   -1.20667195    0.25291699
 C         -3.08877206   -1.50645697    0.38755700
 H         -1.00859702   -1.54053104    1.12578297
 H         -3.23793697   -2.22795200    1.19242704
 H         -1.14074600   -1.64963996   -0.64685899
 H         -3.46557808   -1.94455898   -0.53877300
