48
wb97x-d4 ma-def2-tzvp(-f) cpcm(dmso) E: -1056.420907897776, G: -1056.0429963400002
 H          1.94085300    3.34201789   -1.08707798
 C          0.93647403    3.12806892   -0.72037500
 H          0.99253601   -0.74031901   -2.78274488
 H          0.47577301    4.03527594   -0.33404899
 H          0.33122900    2.71562409   -1.52823997
 O          2.01546097    0.77459800   -1.01249695
 H          0.80453598   -1.79299998   -1.36515296
 C          1.28004897    0.90428102    0.14054000
 C          1.52355599   -1.37397504   -2.06498194
 O          0.99736899    2.22534800    0.39756900
 O          3.10593891    1.06798804    1.71043706
 C          2.56737399   -0.51797700   -1.34195900
 H          2.66075492   -2.14644408   -3.45357609
 C          1.94493794    0.31353101    1.39179802
 O          2.14520907   -2.47927403   -2.70912099
 H          3.35501695   -0.28140399   -2.06064796
 H          2.85997605    2.00240302    1.73011506
 H          3.36060500   -2.25659895   -0.41186199
 H          1.22830701    0.33540300    2.21644711
 C          3.23302889   -1.20369506   -0.14931300
 C          2.39183688   -1.11800098    1.13361001
 H          4.44055319    0.16409700    0.53097999
 H          3.01442790   -1.44092906    1.97383595
 O          4.54022408   -0.68768698    0.07980200
 O          1.20439005   -1.89322197    1.05139005
 H          1.44939303   -2.82456493    0.99207002
 H         -3.90651393    0.79521799   -1.41836202
 H         -1.62565005    1.28130996   -1.50981200
 C         -3.52328992    1.01313603   -0.41952300
 C         -1.98727405    1.24647105   -0.48287100
 H         -4.00914907    1.92120898   -0.05875600
 H         -1.69307101    2.15540195    0.03952700
 H         -3.73040700   -1.71360803   -0.99667799
 H         -1.54191601   -1.08858597   -1.49085796
 C         -3.20353198   -1.43454397   -0.08260600
 C         -1.70776296   -1.17161798   -0.41754699
 C         -3.80104709   -0.16168000    0.52309602
 N         -1.34008396    0.11312600    0.19143900
 H         -4.87616587   -0.28182501    0.66716403
 H          0.20754001    0.35565200    0.02695200
 H         -3.28506899   -2.26311398    0.62380898
 H         -1.05880201   -1.94068301   -0.00428900
 C         -1.57819903    0.12795100    1.64136302
 C         -3.11637092    0.11077500    1.86537898
 H         -1.12353599    1.02969801    2.05118799
 H         -3.44445109    1.07029498    2.26998496
 H         -1.09137106   -0.74964100    2.06395197
 H         -3.36368990   -0.66649002    2.59045196
