48
wb97x-d4 ma-def2-tzvp(-f) cpcm(dmso) E: -1056.428768903624, G: -1056.0531375300002
 H          1.51831102    1.13206005   -2.74779201
 C          1.07224405    1.91145504   -2.12915802
 H          3.59135389   -2.47912407   -2.11144900
 H          1.44885397    2.88731503   -2.42770505
 H         -0.01519900    1.88668597   -2.22872090
 O          1.18445003   -0.56469601   -0.84467298
 H          2.00428009   -2.03517699   -2.76389790
 C          1.01636100    0.60687202   -0.13213900
 C          2.55933094   -2.23673010   -1.84524500
 O          1.44797206    1.75051296   -0.75156403
 O          1.41416395    1.73962605    1.99222302
 C          2.56142402   -0.97242999   -1.00415802
 H          2.56000590   -3.77164602   -0.63085699
 C          1.59986806    0.53724402    1.27777195
 O          1.92140996   -3.33785105   -1.20771301
 H          3.10862494   -0.19883500   -1.55546498
 H          1.78772295    2.46300507    1.47057295
 H          2.66596293   -1.94567800    0.91099697
 H          1.07165694   -0.24223900    1.83017099
 C          3.19492888   -1.15012705    0.37085900
 C          3.07311797    0.13466200    1.17608905
 H          4.97661781   -1.53001595    1.03717995
 H          3.63383102    0.93207699    0.67192298
 O          4.55402184   -1.50744700    0.16924600
 O          3.62467909   -0.11760600    2.45965600
 H          3.69583297    0.72211301    2.92919993
 H         -3.70166802   -0.29412901    2.53497601
 H         -1.53084302    0.51005799    2.22171688
 C         -3.31180906   -0.62212098    1.57014406
 C         -1.81906903   -0.21155700    1.45767701
 H         -3.40377307   -1.70873499    1.51715398
 H         -1.15742397   -1.07589805    1.50498497
 H         -4.00958014    1.95826304    1.41325104
 H         -1.79277205    2.41244507    0.79077297
 C         -3.79045200    1.53806496    0.42965299
 C         -2.29249191    1.75203598    0.08271000
 C         -4.08433294    0.03336300    0.42020699
 N         -1.63855004    0.43330199    0.14654700
 H         -5.15481806   -0.14080399    0.53898603
 H         -0.19299300    0.65585399   -0.00268600
 H         -4.40496206    2.05833697   -0.30681300
 H         -2.15745807    2.13695598   -0.92733097
 C         -2.04963303   -0.44686800   -0.95985800
 C         -3.59661007   -0.55937803   -0.90643102
 H         -1.56044805   -1.40853703   -0.81220502
 H         -3.88216090   -1.60921705   -0.98997200
 H         -1.70117605   -0.00616400   -1.89285195
 H         -4.03880405   -0.01930200   -1.74598098
