48
wb97x-d4 ma-def2-tzvp(-f) cpcm(dmso) E: -1056.419912689804, G: -1056.04266607
 H          0.48544499    2.79966092   -2.80030298
 C          0.79112101    1.79097104   -2.52866101
 H          2.30250406   -3.40187097   -0.06881300
 H         -0.02711100    1.09058404   -2.71414304
 H          1.66366100    1.49126506   -3.10982108
 O          1.84277797   -0.29893199   -1.28154397
 H          1.08367503   -2.79179096   -1.20581806
 C          1.18025696    0.61764300   -0.48911300
 C          1.68083799   -2.53901696   -0.32675001
 O          1.11204398    1.83721697   -1.12984395
 O          1.50953996    2.09605908    1.42715502
 C          2.59198999   -1.37327898   -0.68133301
 H          1.15462995   -2.50069308    1.56528902
 C          1.80057895    0.81850302    0.90165901
 O          0.76991302   -2.23005009    0.72441500
 H          3.23737097   -1.70871997   -1.49573195
 H          1.61498904    2.74372292    0.71623099
 H          3.27157807   -1.46911204    1.38173902
 H          1.37599695    0.09459000    1.59807897
 C          3.51078606   -0.90919000    0.47444299
 C          3.30298305    0.56321901    0.79264200
 H          5.16161680   -0.70501602   -0.55561501
 H          3.72274804    1.18160295   -0.01368100
 O          4.87238598   -1.21879900    0.20945200
 O          3.94721389    0.85143298    2.02097893
 H          3.66981506    1.73889005    2.28432202
 H         -3.44771290    0.26472899    2.55232692
 H         -1.29464102    0.90321201    1.89794695
 C         -3.10871196   -0.34502199    1.71317399
 C         -1.61448002   -0.02442500    1.42380404
 H         -3.21734691   -1.39596796    1.98875904
 H         -0.95763397   -0.83654499    1.72671294
 H         -3.72067094    2.09097290    0.80847597
 H         -1.54284000    2.23768210   -0.06208700
 C         -3.58130288    1.38323796   -0.01121200
 C         -2.10026693    1.40369201   -0.48705700
 C         -3.92077208   -0.03792200    0.45033199
 N         -1.48969495    0.15167101   -0.02754800
 H         -4.98866081   -0.12159200    0.65895402
 H          0.06334500    0.26242700   -0.33017799
 H         -4.22298813    1.68972802   -0.83888799
 H         -2.02850294    1.43374598   -1.57257605
 C         -1.96730602   -1.01442397   -0.77921599
 C         -3.51735902   -1.02655303   -0.64922202
 H         -1.50787199   -1.89828300   -0.34149799
 H         -3.84559488   -2.03755307   -0.40230399
 H         -1.64402294   -0.90956903   -1.81466806
 H         -3.97429991   -0.74213398   -1.59926903
