48
wb97x-d4 ma-def2-tzvp(-f) cpcm(dmso) E: -1056.420783216623, G: -1056.0426079200001
 H          0.37544200    3.18151999   -2.56168103
 C          0.84499598    2.22050309   -2.36066103
 H          1.14964795   -2.13376808   -1.90815997
 H          0.23164199    1.41343999   -2.76447511
 H          1.83853304    2.18487906   -2.80797696
 O          2.01909590    0.17104000   -1.25861299
 H          0.91381103   -2.20556402   -0.14883199
 C          1.24767804    0.90420800   -0.38926601
 C          1.65693402   -2.22147298   -0.94196802
 O          0.93888801    2.13164806   -0.92784899
 O          3.01062608    1.98894894    0.85519099
 C          2.63480902   -1.05137002   -0.80149698
 H          2.88674688   -3.58636308   -1.61020601
 C          1.88001394    1.13930905    0.99022502
 O          2.33892703   -3.46380806   -0.82562900
 H          3.44498992   -1.20965397   -1.51706100
 H          2.74235797    2.76724601    0.34861901
 H          3.44599199   -1.92986095    0.95517802
 H          1.13188899    1.58870101    1.64763606
 C          3.27224898   -0.91812903    0.58113801
 C          2.37274790   -0.17529000    1.58091700
 H          4.40314198    0.65670103    0.40610299
 H          2.96345305    0.04857400    2.47479105
 O          4.55058384   -0.29625499    0.50387597
 O          1.21043301   -0.92188001    1.91073895
 H          1.48082101   -1.71780503    2.38432193
 H         -3.57988691    1.56584799    1.93673003
 H         -1.37391698    1.87865901    1.25470304
 C         -3.11733198    0.60368103    1.71024895
 C         -1.61629403    0.82204002    1.36715698
 H         -3.20528793   -0.03205100    2.59344602
 H         -0.96084797    0.37443399    2.11141396
 H         -3.92904091    1.82256198   -0.56228203
 H         -1.66261804    1.85673201   -1.09545898
 C         -3.56486297    0.80740899   -0.73106098
 C         -2.03890204    0.83712798   -1.03159499
 C         -3.80369210   -0.05519600    0.51112098
 N         -1.35240805    0.16541500    0.07943800
 H         -4.87451792   -0.15241501    0.69880497
 H          0.18577699    0.35797000   -0.19320799
 H         -4.09264803    0.39537901   -1.59280300
 H         -1.79358006    0.29862300   -1.94615698
 C         -1.64474797   -1.27277601    0.12053500
 C         -3.18338490   -1.43610406    0.28406999
 H         -1.09677196   -1.69736898    0.95934200
 H         -3.38669300   -2.09224391    1.13207304
 H         -1.29159200   -1.71595299   -0.80947900
 H         -3.60320091   -1.89727104   -0.61189801
