48
wb97x-d4 ma-def2-tzvp(-f) cpcm(dmso) E: -1056.420709031841, G: -1056.04254631
 H          1.96273005    3.26033211   -1.28082097
 C          0.96917200    3.10515594   -0.85990202
 H          1.03003299   -0.84696400   -2.77480006
 H          0.55642402    4.04920006   -0.50931102
 H          0.31417799    2.66839600   -1.61540997
 O          2.01896501    0.72800601   -1.04050004
 H          0.80850500   -1.84242594   -1.32087600
 C          1.28804398    0.92576998    0.10570100
 C          1.54305995   -1.45502901   -2.02262902
 O          1.04692996    2.26523805    0.30546901
 O          3.10477304    1.11217403    1.68497205
 C          2.57542205   -0.57607001   -1.31134999
 H          2.70745397   -2.28457999   -3.35435891
 C          1.93235505    0.36848700    1.38237798
 O          2.17070293   -2.58697510   -2.61197305
 H          3.37669492   -0.36613500   -2.02332091
 H          2.87886405    2.05150294    1.65702796
 H          3.33254194   -2.28709197   -0.30650899
 H          1.20977199    0.43623701    2.19940996
 C          3.21689010   -1.22344100   -0.08503000
 C          2.35676003   -1.07973301    1.17967200
 H          4.43601418    0.14837800    0.56425703
 H          2.95793200   -1.38579202    2.04148507
 O          4.52873611   -0.71937299    0.14287300
 O          1.15772200   -1.83738697    1.09751201
 H          1.38634205   -2.77444100    1.07637894
 H         -4.11332703    1.49181795   -0.84158701
 H         -1.84774804    1.40251994   -1.38941801
 C         -3.52011108    1.25207305    0.04249200
 C         -2.01143289    1.36641598   -0.31304201
 H         -3.77347898    1.96891499    0.82621801
 H         -1.55277002    2.23555493    0.15563700
 H         -3.68130398   -0.93135202   -1.50779402
 H         -1.35034001   -0.91214901   -1.58890796
 C         -3.26221490   -1.15813994   -0.52532899
 C         -1.71351600   -1.03525805   -0.56950098
 C         -3.80052900   -0.17592800    0.51865602
 N         -1.34424806    0.16094001    0.19776700
 H         -4.87293005   -0.32315299    0.65745199
 H          0.19545400    0.40959600    0.01470000
 H         -3.53206301   -2.18383789   -0.26872799
 H         -1.22234499   -1.88904202   -0.10576000
 C         -1.56698298   -0.01800800    1.64056098
 C         -3.05939507   -0.40289801    1.83926296
 H         -1.32070601    0.92469102    2.12987208
 H         -3.48545599    0.21194801    2.63382602
 H         -0.89600199   -0.79861301    1.99223495
 H         -3.13557291   -1.44953299    2.14104390
