48
wb97x-d4 ma-def2-tzvp(-f) cpcm(dmso) E: -1056.419614968266, G: -1056.0418626
 H          1.47381198    1.11240494   -3.55435610
 C          0.52399600    1.37697101   -3.08879709
 H          3.00468707   -2.11120892   -2.36583996
 H          0.07953900    2.22918391   -3.59928393
 H         -0.15443900    0.52317798   -3.13159704
 O          1.74476397   -0.21860699   -1.40403605
 H          2.13945103   -2.87340689   -1.01612902
 C          1.08422005    0.84106398   -0.81448603
 C          2.98586798   -2.22757292   -1.28066897
 O          0.73289198    1.80648899   -1.73354006
 O          3.01298308    2.12671304   -0.15980700
 C          2.79483199   -0.85175902   -0.65081602
 H          4.22313118   -2.85473108    0.06552200
 C          1.83630002    1.50933897    0.33773699
 O          4.22206211   -2.81508803   -0.90128303
 H          3.71510506   -0.27030599   -0.76301998
 H          2.75305009    2.72874808   -0.86950898
 H          1.40258205   -1.40710497    0.85974401
 H          1.16991198    2.24817109    0.79329199
 C          2.38218999   -0.91754001    0.81421500
 C          2.25930595    0.48437500    1.40143096
 H          2.97104502   -1.94898796    2.36830401
 H          3.24425411    0.79231298    1.76508200
 O          3.34142590   -1.70340705    1.51227200
 O          1.32841301    0.40590701    2.47315907
 H          1.41269505    1.20234895    3.01131701
 H         -2.95178699   -1.31327200    2.45397210
 H         -0.77112001   -0.94953698    1.72746694
 C         -2.92284298   -1.28515303    1.36329401
 C         -1.45606697   -1.06190801    0.88904899
 H         -3.28495097   -2.24352789    0.98759300
 H         -1.11003196   -1.86281502    0.23595899
 H         -3.31568503    1.20074606    2.47158289
 H         -1.09747505    1.38354003    1.78501499
 C         -3.26122808    1.18758094    1.38167703
 C         -1.77868104    1.35670996    0.93604898
 C         -3.79212189   -0.14073700    0.83445197
 N         -1.43291605    0.18746500    0.12074700
 H         -4.82766008   -0.28531599    1.14770305
 H          0.06240800    0.43285599   -0.35455701
 H         -3.85507298    2.02012992    1.00062394
 H         -1.63420606    2.24678898    0.32400799
 C         -2.22488904    0.10925500   -1.11140299
 C         -3.70791101   -0.11912200   -0.69444102
 H         -1.83688498   -0.71509200   -1.70869005
 H         -4.06065893   -1.06545997   -1.10785902
 H         -2.09752488    1.04673803   -1.65051305
 H         -4.32676315    0.68264502   -1.10062802
