48
wb97x-d4 ma-def2-tzvp(-f) cpcm(dmso) E: -1056.42076223023, G: -1056.0418369400002
 H          1.63449800    0.66628897   -3.57169294
 C          0.62981802    0.73813200   -3.15297103
 H          0.95486099   -1.71433794    0.92010802
 H          0.00494600    1.36529100   -3.78645706
 H          0.19613700   -0.25965199   -3.07262707
 O          2.03304911   -0.28824800   -1.23064697
 H          2.36342502   -2.76631498    1.03948498
 C          1.17208505    0.70275700   -0.81168503
 C          1.76868904   -2.15446401    0.35194799
 O          0.66697299    1.40009999   -1.87888002
 O          2.77565002    2.48847103   -0.44864199
 C          2.68626308   -1.07659400   -0.22007000
 H          1.87184000   -3.45414495   -1.10356903
 C          1.80639696    1.68489599    0.19248401
 O          1.17624104   -2.95054793   -0.66381001
 H          3.48279905   -1.57964504   -0.77586401
 H          3.59116006    1.96704102   -0.51999199
 H          3.61988711   -0.84419602    1.69972003
 H          1.02726603    2.34970593    0.56632501
 C          3.33719301   -0.20507801    0.85591000
 C          2.40678406    0.90529501    1.36232603
 H          5.10721588   -0.18386801   -0.00890100
 H          2.99730611    1.59928405    1.96809196
 O          4.48867607    0.46825901    0.34230700
 O          1.32190502    0.37433901    2.10677695
 H          1.66439402   -0.01175100    2.92229199
 H         -3.71926904   -1.61376405   -0.89237601
 H         -1.52239001   -1.16723800   -1.57001698
 C         -3.50781703   -0.54388499   -0.83798200
 C         -2.00963998   -0.28181800   -1.16310799
 H         -4.12637615   -0.03622800   -1.57988596
 H         -1.88723600    0.55378002   -1.84986401
 H         -3.43998790   -1.88481903    1.62480402
 H         -1.31078601   -1.91954601    0.68145001
 C         -3.02888703   -0.87495297    1.58007801
 C         -1.54331505   -0.95344400    1.12806201
 C         -3.79621506   -0.01606800    0.57133400
 N         -1.34572804    0.07266000    0.09729500
 H         -4.86711407   -0.05447000    0.77760202
 H          0.21872000    0.22430401   -0.25864801
 H         -3.09282207   -0.43604901    2.57797098
 H         -0.85870701   -0.75190198    1.94893098
 C         -1.73790002    1.40811205    0.56308502
 C         -3.28861308    1.42677999    0.66801399
 H         -1.37572801    2.14129901   -0.15723699
 H         -3.71055794    2.03168511   -0.13727701
 H         -1.25907695    1.57639599    1.52669799
 H         -3.57601404    1.87814999    1.61910403
