48
wb97x-d4 ma-def2-tzvp(-f) cpcm(dmso) E: -1056.426943366213, G: -1056.05313535
 H          1.83195996    2.92997599   -2.27967000
 C          1.22087896    2.07467103   -1.99941802
 H          3.59800911   -2.39579201   -2.12858796
 H          0.16362000    2.33134699   -2.08991289
 H          1.45572197    1.22115302   -2.63552403
 O          1.18701601   -0.49536401   -0.85360998
 H          2.05621910   -1.86634195   -2.84249592
 C          1.03409302    0.64534801   -0.08889800
 C          2.55801010   -2.13746810   -1.90724194
 O          1.54008496    1.79820597   -0.62649000
 O          1.39793098    1.65260100    2.10490608
 C          2.55828404   -0.93114698   -0.99663401
 H          1.91258097   -3.97653198   -1.86291802
 C          1.56343603    0.48108500    1.33529699
 O          1.88855195   -3.21983290   -1.26701498
 H          3.13899589   -0.14095800   -1.48555696
 H          1.81680298    2.38552809    1.63348305
 H          2.59471989   -2.02219605    0.85681701
 H          0.98877198   -0.30458400    1.82934403
 C          3.14807796   -1.20261800    0.38446501
 C          3.02565098    0.03528700    1.26022100
 H          4.90414381   -1.64970398    1.07622004
 H          3.62645507    0.84434998    0.82544202
 O          4.50896215   -1.56404495    0.19945499
 O          3.52123404   -0.30764601    2.54596806
 H          3.59384298    0.50038999    3.06804204
 H         -4.25332880    1.98151600    1.27004004
 H         -2.08162093    2.45273590    0.54159200
 C         -3.61644506    1.10233498    1.38009405
 C         -2.14992905    1.49205196    1.05109298
 H         -3.68700790    0.75871903    2.41409993
 H         -1.51975095    1.50939095    1.93938601
 H         -4.24725723    1.39446998   -1.21685696
 H         -1.95866394    1.51411700   -1.64027703
 C         -3.77144289    0.43222499   -1.01673400
 C         -2.23523402    0.55644798   -1.20391703
 C         -4.05607224   -0.01101300    0.42165899
 N         -1.62250900    0.46684101    0.13392600
 H         -5.12000322   -0.21723901    0.54800701
 H         -0.18439300    0.72501200    0.00097000
 H         -4.16215992   -0.29490599   -1.73032105
 H         -1.82355404   -0.25103500   -1.80865204
 C         -1.73134601   -0.88958901    0.69945699
 C         -3.23505807   -1.26973796    0.71609300
 H         -1.31292903   -0.86024398    1.70479596
 H         -3.48928595   -1.67923701    1.69496405
 H         -1.13992095   -1.56295502    0.08063200
 H         -3.43613911   -2.03561711   -0.03573700
