48
wb97x-d4 ma-def2-tzvp(-f) cpcm(dmso) E: -1056.428539402856, G: -1056.05312348
 H          1.19939303    0.24063700   -3.73857903
 C          0.91508400   -0.24078999   -2.80547309
 H          2.26429796   -2.92294192    1.21136296
 H         -0.16247700   -0.41997901   -2.79196596
 H          1.44851100   -1.18483496   -2.69122291
 O          1.26989996   -0.99397302   -0.14018101
 H          3.88960695   -2.93656707    0.49757001
 C          0.95909798    0.30708399   -0.48408300
 C          2.83432198   -2.73121905    0.29914001
 O          1.27580905    0.68090898   -1.76357400
 O          1.19933999    2.65379405    0.13755600
 C          2.68739390   -1.26919496   -0.07622000
 H          2.91696811   -3.58947611   -1.45328605
 C          1.52414596    1.32919502    0.49992400
 O          2.31909490   -3.60675192   -0.69676900
 H          3.13793993   -1.08786702   -1.05917394
 H          1.49319398    2.79903197   -0.77202499
 H          2.91174197   -0.56763899    1.94504702
 H          1.07390296    1.14967406    1.47816205
 C          3.33070707   -0.34473199    0.95402300
 C          3.03334594    1.10927904    0.61863500
 H          5.14111996    0.07110900    1.51227999
 H          3.50962400    1.35870695   -0.33799800
 O          4.72956181   -0.59043700    0.94149202
 O          3.58557010    1.89805603    1.66221201
 H          3.56547904    2.82246208    1.38706899
 H         -3.94847608   -1.90744698    0.70869303
 H         -1.62369096   -1.69903600    0.57586801
 C         -3.67776608   -1.10752296    0.01772700
 C         -2.13704991   -1.10193002   -0.17680199
 H         -4.17214918   -1.30058503   -0.93654799
 H         -1.84785998   -1.44624305   -1.16862595
 H         -3.34758806   -0.23506500    2.53926492
 H         -1.11162305    0.14573000    1.97856700
 C         -3.26765108    0.57463002    1.81122506
 C         -1.78820598    0.74871099    1.37388396
 C         -4.10690880    0.25643101    0.57001901
 N         -1.68475401    0.29104900   -0.02210700
 H         -5.16709900    0.24041900    0.82759303
 H         -0.25108701    0.33515599   -0.35214701
 H         -3.61198306    1.49479496    2.28577900
 H         -1.47123301    1.79080999    1.40278399
 C         -2.36255908    1.20528698   -0.95781898
 C         -3.83869696    1.32875502   -0.49196899
 H         -2.28153610    0.77287000   -1.95448899
 H         -4.49659109    1.19551206   -1.35225594
 H         -1.84044003    2.16128302   -0.93506098
 H         -4.01771784    2.32285404   -0.07750500
