48
wb97x-d4 ma-def2-tzvp(-f) cpcm(dmso) E: -1056.427950097084, G: -1056.05306861
 H          0.18780901    2.81825805   -0.28766900
 C          1.26690495    2.68896794   -0.17743000
 H          1.89507306   -1.28489196   -3.11063790
 H          1.72497594    2.55037189   -1.15710199
 H          1.69538796    3.55739903    0.31811199
 O          1.22024298    0.03643000   -1.04297304
 H          3.61597204   -0.82725000   -3.17042804
 C          1.04208696    0.35978201    0.28810301
 C          2.61428905   -0.48641300   -2.89436507
 O          1.54735196    1.57094300    0.68164003
 O          1.34966397   -0.39653900    2.58874893
 C          2.59889388   -0.19513901   -1.41308904
 H          2.30699611    0.52359003   -4.53565216
 C          1.53635395   -0.73516703    1.23146200
 O          2.27353311    0.71000803   -3.59077692
 H          3.18538189    0.70786601   -1.21189499
 H          1.77037394    0.45919400    2.74960995
 H          2.58505511   -2.26384497   -0.81633902
 H          0.94722098   -1.63576603    1.04843998
 C          3.15082312   -1.35118902   -0.58361900
 C          2.99688196   -1.04625404    0.90010703
 H          4.89176989   -2.15954304   -0.30595899
 H          3.61742997   -0.17588601    1.14860702
 O          4.51984501   -1.51605701   -0.92281300
 O          3.44873095   -2.18999505    1.61023498
 H          3.51907897   -1.95859504    2.54424310
 H         -4.08791780   -0.06021200   -1.67791998
 H         -1.76049805   -0.28190401   -1.58310103
 C         -3.68146300    0.53146601   -0.85609901
 C         -2.13088393    0.50951803   -0.93264699
 H         -4.04498816    1.55566204   -0.96181399
 H         -1.72344697    1.46479905   -1.26051903
 H         -3.62011003   -2.05450702   -0.15311600
 H         -1.31882799   -1.81230605    0.18183801
 C         -3.42146707   -1.39941502    0.69750798
 C         -1.89513302   -1.15580404    0.83331901
 C         -4.11129284   -0.04646000    0.49736100
 N         -1.63462996    0.23559900    0.42631301
 H         -5.19510794   -0.16786300    0.52811903
 H         -0.16972999    0.38273501    0.39687601
 H         -3.78663397   -1.89241004    1.59975195
 H         -1.55005801   -1.26852500    1.86087203
 C         -2.14365792    1.20585299    1.41077495
 C         -3.65448689    0.90692300    1.60794699
 H         -1.97062397    2.20342112    1.00817800
 H         -4.21057320    1.84489000    1.56805801
 H         -1.57537198    1.08493602    2.33266401
 H         -3.82122397    0.45332301    2.58706498
