48
wb97x-d4 ma-def2-tzvp(-f) cpcm(dmso) E: -1056.428310861198, G: -1056.0530205700002
 H          1.51239300    2.99824095   -2.02436495
 C          1.05472302    2.02695799   -1.85010505
 H          2.12169290   -2.89195395   -1.71116996
 H         -0.03059900    2.10638309   -1.94549096
 H          1.43892705    1.29609704   -2.56203699
 O          1.24616396   -0.62341601   -0.92358100
 H          3.78313899   -2.41170096   -2.11193299
 C          0.99409801    0.43241000   -0.06966500
 C          2.74510503   -2.07101989   -2.07329202
 O          1.40411603    1.66581094   -0.50387597
 O          1.24685001    1.26036406    2.21228504
 C          2.65125394   -0.91214401   -1.09986901
 H          2.90784192   -1.14497697   -3.78485608
 C          1.52715397    0.18688400    1.33963501
 O          2.26659203   -1.73448598   -3.37069798
 H          3.15132689   -0.03204500   -1.52065694
 H          1.58610201    2.07255197    1.81213903
 H          2.80741692   -2.15870094    0.64806402
 H          1.02433002   -0.69201601    1.74803305
 C          3.27242994   -1.24384606    0.25549999
 C          3.02437592   -0.11270000    1.24424100
 H          5.06647921   -1.55564594    0.92501599
 H          3.54958105    0.78528899    0.89515501
 O          4.66397810   -1.44267404    0.05441200
 O          3.54396701   -0.53042400    2.49809098
 H          3.53037190    0.22483900    3.09837794
 H         -4.21573210    2.27137589    0.61859602
 H         -2.02961707    2.30457401   -0.21076800
 C         -3.62495399    1.47318399    1.07083499
 C         -2.14298010    1.62946105    0.63705200
 H         -3.70768404    1.56124401    2.15596604
 H         -1.50722802    1.96690094    1.45466399
 H         -4.22934914    0.77038598   -1.44678199
 H         -1.93415904    0.55288303   -1.84696305
 C         -3.81692696   -0.06714400   -0.88040203
 C         -2.27588010   -0.12242300   -1.06434906
 C         -4.12533188    0.09830100    0.61202198
 N         -1.67253304    0.30068800    0.21109800
 H         -5.19880581    0.01058400    0.78599501
 H         -0.22142600    0.42568499    0.02213100
 H         -4.25574017   -0.98806101   -1.26761198
 H         -1.92095804   -1.13036394   -1.27663696
 C         -1.85048699   -0.71180499    1.26560795
 C         -3.37253499   -0.98730999    1.38914502
 H         -1.43433797   -0.30272499    2.18572903
 H         -3.65249300   -0.97751099    2.44363093
 H         -1.29240894   -1.60290301    0.97846502
 H         -3.60824609   -1.97309899    0.98322099
