48
wb97x-d4 ma-def2-tzvp(-f) cpcm(dmso) E: -1056.428221077028, G: -1056.0530040800002
 H         -0.02047500    0.96697402   -2.75988793
 C          1.06731904    0.99451900   -2.66348910
 H          3.73398089   -2.97548294   -1.02164996
 H          1.48860502    0.02671400   -2.93672991
 H          1.47535205    1.77493501   -3.30196309
 O          1.23025405   -0.83889103   -0.55730999
 H          2.16127706   -2.85690999   -1.84521794
 C          1.01711500    0.50651401   -0.32857099
 C          2.68328500   -2.69691396   -0.89556599
 O          1.43332100    1.35378599   -1.32147300
 O          1.35123503    2.35508394    1.23042202
 C          2.62379408   -1.22462106   -0.55912697
 H          2.12033105   -4.38115692   -0.09161500
 C          1.57695794    0.97900200    1.01251304
 O          2.07573009   -3.44958711    0.15019700
 H          3.15118098   -0.67772400   -1.34875703
 H          1.71169102    2.84512210    0.47879499
 H          2.73580098   -1.44604695    1.57724798
 H          1.05803204    0.44468501    1.81035995
 C          3.24127889   -0.87329602    0.79132700
 C          3.06105304    0.61045200    1.07673299
 H          5.02655411   -0.89793998    1.54808295
 H          3.61089802    1.19049799    0.32461399
 O          4.61755991   -1.21778297    0.73392701
 O          3.59234595    0.85616302    2.37055802
 H          3.62255502    1.81049895    2.50872803
 H         -3.68162608    0.53337198    2.50202298
 H         -1.49602103    1.13165402    1.93823802
 C         -3.31590199   -0.09405000    1.68759096
 C         -1.81643295    0.21853100    1.43707097
 H         -3.43363404   -1.13844895    1.98309100
 H         -1.17262805   -0.60654098    1.74132800
 H         -3.97814393    2.32225108    0.72573799
 H         -1.75590301    2.50570607    0.00361000
 C         -3.77281189    1.60661995   -0.07290200
 C         -2.27337694    1.67254603   -0.47091001
 C         -4.09325790    0.18352801    0.39662400
 N         -1.64387906    0.42227700   -0.01148000
 H         -5.16473007    0.07951100    0.57464099
 H         -0.19935800    0.56356102   -0.23542300
 H         -4.38400888    1.87592101   -0.93581599
 H         -2.13752389    1.73198605   -1.54998899
 C         -2.09116793   -0.74855202   -0.78593397
 C         -3.63843203   -0.80848902   -0.67849702
 H         -1.61221194   -1.62714601   -0.35549799
 H         -3.94106507   -1.82457995   -0.42034599
 H         -1.75706601   -0.62464398   -1.81497896
 H         -4.08785200   -0.55361003   -1.64033604
