48
wb97x-d4 ma-def2-tzvp(-f) cpcm(dmso) E: -1056.42967226609, G: -1056.05441055
 H          1.51261199    3.37996507   -1.51493502
 C          1.17294300    2.34683204   -1.53577805
 H          3.82892799   -1.92713404   -2.49021006
 H          0.10024400    2.31155610   -1.73856902
 H          1.71253002    1.79010296   -2.30245209
 O          1.30606401   -0.38155499   -0.98649102
 H          2.36760211   -1.21198797   -3.19995689
 C          1.03705204    0.53323400    0.01351700
 C          2.78287292   -1.68349898   -2.30272388
 O          1.44989598    1.81756604   -0.22845601
 O          1.26061106    1.03434801    2.39051890
 C          2.70924592   -0.69140202   -1.15719497
 H          1.17255199   -2.71417689   -1.92680800
 C          1.54284894    0.08691200    1.38318002
 O          2.11387706   -2.90522194   -2.01680803
 H          3.25353789    0.21536601   -1.44394195
 H          1.61451602    1.88960302    2.11107111
 H          2.76669788   -2.16289401    0.40867001
 H          1.02153802   -0.83183098    1.65954006
 C          3.27441096   -1.22487402    0.15445600
 C          3.03711796   -0.22277200    1.27377796
 H          5.03528309   -1.71914303    0.80229998
 H          3.58381009    0.70273602    1.05173504
 O          4.66192293   -1.45036304   -0.04651000
 O          3.52492404   -0.80490899    2.47290111
 H          3.48468709   -0.13834600    3.16948390
 H         -4.27471590    2.18882108    0.32045099
 H         -2.02723098    2.30911994   -0.29613701
 C         -3.69682193    1.42635703    0.84507501
 C         -2.18872809    1.63513803    0.54436499
 H         -3.88240290    1.53494704    1.91542697
 H         -1.64088094    2.00223899    1.41164196
 H         -4.07104921    0.63371199   -1.70028198
 H         -1.74032795    0.54530603   -1.89957595
 C         -3.66205311   -0.16481499   -1.07811296
 C         -2.11041999   -0.14031599   -1.13859606
 C         -4.09804487    0.02212100    0.37972799
 N         -1.63219094    0.32290199    0.17448200
 H         -5.17752409   -0.10914200    0.46858999
 H         -0.17847399    0.51176602    0.07535900
 H         -4.02048302   -1.11820900   -1.46947706
 H         -1.68854594   -1.13013101   -1.30980897
 C         -1.84962797   -0.68637002    1.22416699
 C         -3.36809993   -1.00952005    1.24686205
 H         -1.50627601   -0.26002899    2.16624188
 H         -3.72579002   -0.97328901    2.27699399
 H         -1.24827600   -1.56225300    0.98070902
 H         -3.54035592   -2.01646805    0.86158103
