48
wb97x-d4 ma-def2-tzvp(-f) cpcm(dmso) E: -1056.426954347246, G: -1056.05278732
 H          1.59397495    0.71974200   -2.86326694
 C          1.15919399    1.58986199   -2.37059999
 H          2.03328896   -3.14894199   -0.91987097
 H          1.57283902    2.50348210   -2.79209495
 H          0.07467600    1.58381295   -2.49557090
 O          1.24230695   -0.69023198   -0.77507401
 H          3.65017104   -2.82391500   -1.58224499
 C          1.04947805    0.56643802   -0.22446200
 C          2.62606812   -2.45447111   -1.52706003
 O          1.49721599    1.61677098   -0.97425401
 O          1.40421700    1.95808303    1.70582294
 C          2.62846088   -1.09219003   -0.86413097
 H          1.20937204   -2.11850905   -2.82119298
 C          1.58720100    0.64919001    1.20174098
 O          2.13269997   -2.39565396   -2.85970712
 H          3.17435789   -0.37664801   -1.48843002
 H          1.24450195    1.89533997    2.65424895
 H          2.70958304   -1.86828601    1.13898301
 H          1.03448498   -0.07918200    1.80353200
 C          3.23316908   -1.11527503    0.53387898
 C          3.06307101    0.24549399    1.19367898
 H          5.00717497   -1.34272099    1.27849996
 H          3.63531208    0.99135703    0.63098502
 O          4.60676193   -1.45009506    0.40597299
 O          3.56575799    0.13819499    2.51927996
 H          3.81649399    1.01713896    2.82563901
 H         -3.94352007    2.11480808    1.24774003
 H         -1.61408901    2.25529194    1.05848801
 C         -3.48237610    1.15075696    1.47100997
 C         -1.94710898    1.23833203    1.26131701
 H         -3.68891501    0.90844500    2.51468205
 H         -1.39716995    0.84166002    2.11377907
 H         -4.42813587    1.40207100   -1.12775397
 H         -2.15470290    1.90489101   -1.24756801
 C         -3.83496499    0.51272702   -0.90888101
 C         -2.33073592    0.83729702   -1.12058401
 C         -4.04261589    0.06932000    0.54222798
 N         -1.61086500    0.40850401    0.09114000
 H         -5.10521507   -0.08110900    0.73948002
 H         -0.16751300    0.61763000   -0.13573401
 H         -4.14286900   -0.27849600   -1.59522200
 H         -1.91326106    0.29681301   -1.96915698
 C         -1.79456997   -1.02804899    0.35587800
 C         -3.27526093   -1.23639703    0.77589101
 H         -1.10222697   -1.32126498    1.14406502
 H         -3.32551503   -1.52061605    1.82873702
 H         -1.54494905   -1.56515801   -0.55814803
 H         -3.70525908   -2.04624510    0.18431400
