48
wb97x-d4 ma-def2-tzvp(-f) cpcm(dmso) E: -1056.428018600829, G: -1056.05275938
 H         -0.16940700   -0.41762400   -2.79820299
 C          0.90978402   -0.25020701   -2.81198597
 H          2.27929401   -2.85587311    1.24170804
 H          1.43264902   -1.19722402   -2.67611790
 H          1.20089495    0.20699300   -3.75513005
 O          1.26961994   -0.94521600   -0.12891801
 H          3.89164710   -2.88573408    0.48440799
 C          0.96458900    0.34923601   -0.50182998
 C          2.83208489   -2.67810512    0.31170401
 O          1.27992499    0.69095701   -1.79043603
 O          1.20736897    2.70427394    0.08838400
 C          2.68687010   -1.22693098   -0.08004300
 H          2.45640397   -4.40757704   -0.50920701
 C          1.54103005    1.38452005    0.46035200
 O          2.32054210   -3.48365402   -0.74721903
 H          3.12309694   -1.06936705   -1.07229304
 H          1.50012302    2.84821010   -0.82193798
 H          2.94865608   -0.48350900    1.92293501
 H          1.10516405    1.21382403    1.44684899
 C          3.35122705   -0.28436100    0.92033398
 C          3.05247498    1.16389799    0.55745900
 H          5.17133379    0.13575400    1.44140005
 H          3.51264596    1.38920498   -0.41292101
 O          4.74854994   -0.53412002    0.88900501
 O          3.62563992    1.97399199    1.57262504
 H          3.58263898    2.89414811    1.28604805
 H         -3.53019691   -1.77325904    1.26811600
 H         -1.38670003   -1.72098100    0.30823299
 C         -3.53606892   -1.21180105    0.33160999
 C         -2.09239197   -1.08230495   -0.22169200
 H         -4.14552593   -1.75965798   -0.38882399
 H         -2.04219890   -1.29789603   -1.28833604
 H         -3.50312209    0.35216501    2.64892793
 H         -1.28935802   -0.00521900    1.98596096
 C         -3.30469894    0.85267401    1.69984901
 C         -1.79170597    0.74309099    1.37339699
 C         -4.09490108    0.19698900    0.56316602
 N         -1.67600501    0.31812701   -0.03210500
 H         -5.15359688    0.14487600    0.82164299
 H         -0.24578500    0.38680199   -0.36695799
 H         -3.58846998    1.90192699    1.80209506
 H         -1.28511405    1.70139098    1.48192203
 C         -2.38159704    1.23725402   -0.94151700
 C         -3.90263200    1.02431595   -0.71309799
 H         -2.08361697    1.00497603   -1.96305394
 H         -4.33809423    0.50460303   -1.56897604
 H         -2.06353593    2.24979806   -0.69487202
 H         -4.38953876    1.99662101   -0.62245601
