48
wb97x-d4 ma-def2-tzvp(-f) cpcm(dmso) E: -1056.427126264904, G: -1056.0527236
 H          0.09297700    1.21261096   -2.53659105
 C          1.14811695    1.43750596   -2.37361693
 H          2.03882098   -3.18978810   -0.81429899
 H          1.76331401    0.66611600   -2.83767700
 H          1.38903201    2.41141605   -2.79418206
 O          1.24041295   -0.77141398   -0.69925499
 H          3.72726703   -2.88755608   -1.29667497
 C          1.00921297    0.49119300   -0.18871300
 C          2.70035005   -2.52002001   -1.37589598
 O          1.43010497    1.53694105   -0.96751398
 O          1.31399405    1.95226598    1.74541998
 C          2.63760209   -1.13956201   -0.76680899
 H          2.33164597   -3.31313801   -3.12059999
 C          1.54285097    0.65733802    1.23358405
 O          2.29615998   -2.42873693   -2.73969698
 H          3.16929603   -0.43034101   -1.41018796
 H          1.70087802    2.59351707    1.13400900
 H          2.73140812   -1.83769798    1.26698303
 H          1.00549901   -0.04019700    1.88017404
 C          3.23590708   -1.09342003    0.63572598
 C          3.02685094    0.28515300    1.24492300
 H          5.01346016   -1.23034203    1.39627600
 H          3.58553195    1.02177894    0.65340698
 O          4.62045813   -1.38906503    0.52832001
 O          3.53362989    0.23487300    2.57007694
 H          3.57241607    1.13496494    2.91496992
 H         -3.90637398    1.61102200    2.13840389
 H         -1.75558996    2.08745289    1.34687197
 C         -3.42236400    0.70218199    1.77720797
 C         -1.94279897    1.01816702    1.43235695
 H         -3.46862698   -0.04672800    2.57048702
 H         -1.25780797    0.59046698    2.16246891
 H         -4.15085506    2.17077088   -0.33981600
 H         -1.91087496    2.13038707   -1.04105198
 C         -3.85347700    1.16177297   -0.63237602
 C         -2.33935499    1.13067496   -0.97288799
 C         -4.11406517    0.17873000    0.51450300
 N         -1.66086102    0.41190901    0.11940000
 H         -5.18654823    0.07549200    0.68623602
 H         -0.20590100    0.52966201   -0.10241200
 H         -4.42310476    0.88325399   -1.52043200
 H         -2.14203000    0.58625901   -1.89563096
 C         -1.95989001   -1.02957904    0.09934100
 C         -3.50417805   -1.17946398    0.14905301
 H         -1.47389698   -1.47726595    0.96586901
 H         -3.76605296   -1.93474400    0.89183003
 H         -1.53474498   -1.45211196   -0.81019598
 H         -3.87780809   -1.51270199   -0.82138002
