48
wb97x-d4 ma-def2-tzvp(-f) cpcm(dmso) E: -1056.428386773272, G: -1056.05272349
 H          1.58408594    3.30903912   -1.56926596
 C          1.20439398    2.29032493   -1.53509402
 H          2.06303191   -2.66054606   -1.88514602
 H          0.12397300    2.28995895   -1.69600701
 H          1.69193602    1.68222404   -2.29756188
 O          1.25543797   -0.41737801   -0.87517798
 H          3.67701507   -2.10881090   -2.38434505
 C          1.05697501    0.54929602    0.09188100
 C          2.65079594   -1.79031599   -2.20093203
 O          1.51057696    1.80319703   -0.21741500
 O          1.35118496    1.12860203    2.43659210
 C          2.64474607   -0.75688100   -1.09342802
 H          1.23383296   -1.00642502   -3.28326702
 C          1.58787203    0.13532300    1.46635103
 O          2.15510297   -1.25710201   -3.42300797
 H          3.18984294    0.13626100   -1.41647100
 H          1.78961003    1.94229996    2.15427399
 H          2.70971107   -2.19325900    0.50262803
 H          1.03655601   -0.75307101    1.78598106
 C          3.23839808   -1.27423596    0.21020100
 C          3.06737804   -0.23731700    1.32018805
 H          5.01241302   -1.73455501    0.83999997
 H          3.64118195    0.65751803    1.06009698
 O          4.61218214   -1.54512501   -0.01884600
 O          3.62475109   -0.70919198    2.53713012
 H          3.09770012   -1.45572996    2.85226488
 H         -4.16299582    1.98982704   -0.42980301
 H         -1.87111497    2.38795090   -0.19986200
 C         -3.77129507    1.47258699    0.44829801
 C         -2.23310900    1.67026699    0.53510100
 H         -4.23845291    1.90565503    1.33420503
 H         -1.91133296    1.97933495    1.52915001
 H         -4.04496288   -0.14466400   -1.81358695
 H         -1.83824003    0.61426699   -1.79895699
 C         -3.50641108   -0.56595099   -0.96318102
 C         -2.00948095   -0.16847400   -1.06090403
 C         -4.07061100   -0.02800500    0.35640100
 N         -1.60924697    0.36642399    0.25165001
 H         -5.14735889   -0.19826700    0.40210900
 H         -0.16072300    0.57723600    0.19148800
 H         -3.60722899   -1.65238595   -1.00109506
 H         -1.36983395   -1.02040601   -1.28721297
 C         -1.83921397   -0.60186702    1.33737600
 C         -3.37411594   -0.74254501    1.51912999
 H         -1.35745299   -0.22158700    2.23753309
 H         -3.67745590   -0.30078700    2.47023511
 H         -1.37177598   -1.54164898    1.04345298
 H         -3.63827491   -1.80105603    1.53684795
