48
wb97x-d4 ma-def2-tzvp(-f) cpcm(dmso) E: -1056.426826701455, G: -1056.0527147100001
 H          1.59522402    0.11386000   -2.99378109
 C          1.09195399    1.02670598   -2.67365789
 H          2.11495709   -3.27530289   -0.31910101
 H          1.42273498    1.86818695   -3.27836704
 H          0.01121000    0.90575999   -2.76939106
 O          1.24760902   -0.85844702   -0.63784802
 H          3.72082090   -3.03417897   -1.04137599
 C          1.02516699    0.48036799   -0.35991701
 C          2.68573403   -2.69259906   -1.05188596
 O          1.43876803    1.36038303   -1.31994402
 O          1.34151196    2.24831796    1.22610605
 C          2.64592290   -1.22840297   -0.66614801
 H          1.25837195   -2.65524197   -2.37691092
 C          1.57123101    0.87112999    1.00937104
 O          2.19033504   -2.90517998   -2.36864090
 H          3.16228008   -0.63402498   -1.42758203
 H          1.40651298    2.41434097    2.17385006
 H          2.76085210   -1.57585597    1.45347202
 H          1.04296803    0.26714501    1.75551105
 C          3.26048303   -0.95074803    0.70065600
 C          3.05813503    0.51390499    1.06430399
 H          5.04176378   -0.97960103    1.46036005
 H          3.60372400    1.13827395    0.34915400
 O          4.64184189   -1.26802003    0.62969500
 O          3.57156897    0.70957798    2.37711596
 H          3.92867994    1.60237396    2.44028592
 H         -3.27916002   -1.02559102    2.23475194
 H         -1.08642197   -1.05209506    1.43006599
 C         -3.27206397   -1.02064896    1.14289606
 C         -1.81075001   -0.93979597    0.62414497
 H         -3.72466207   -1.95089602    0.79595399
 H         -1.60445297   -1.67789805   -0.14979801
 H         -3.64728308    1.49596906    2.30457306
 H         -1.36474395    1.28114402    1.88493705
 C         -3.46190810    1.46444297    1.22970498
 C         -1.93166196    1.47724497    0.97589999
 C         -4.04824686    0.19045401    0.61391902
 N         -1.63151801    0.39316300    0.02418000
 H         -5.10473204    0.10007900    0.87135297
 H         -0.19356599    0.52589703   -0.26883900
 H         -3.92143393    2.34686899    0.78013802
 H         -1.59212506    2.41395998    0.53671902
 C         -2.38734889    0.53340399   -1.23349595
 C         -3.88060689    0.25520501   -0.90783799
 H         -1.98727000   -0.18323299   -1.94969106
 H         -4.18916321   -0.68872499   -1.36147594
 H         -2.22721601    1.54610395   -1.60237002
 H         -4.49402094    1.05222297   -1.33106005
