48
wb97x-d4 ma-def2-tzvp(-f) cpcm(dmso) E: -1056.427559502667, G: -1056.05270687
 H          0.14965500    1.94102395   -2.16296601
 C          1.22614002    1.84499300   -2.01048112
 H          1.92863500   -3.06419802   -1.33983195
 H          1.61682200    1.03015006   -2.62031007
 H          1.71962595    2.77855110   -2.27179289
 O          1.21485400   -0.67751199   -0.79227698
 H          3.63442612   -2.75536203   -1.72358406
 C          1.01942098    0.47848099   -0.06163500
 C          2.62645102   -2.33334208   -1.75526297
 O          1.51107204    1.62883902   -0.61902398
 O          1.32196796    1.54735100    2.11361408
 C          2.59809589   -1.08012795   -0.90210801
 H          2.90838408   -1.58567703   -3.53727794
 C          1.51862395    0.35906801    1.37786901
 O          2.21417189   -2.08893704   -3.09543800
 H          3.16958189   -0.28457701   -1.39470696
 H          1.74012303    2.27395606    1.63186097
 H          2.62370706   -2.14419699    0.96887702
 H          0.94128901   -0.42082301    1.87871099
 C          3.16603804   -1.31429601    0.49548000
 C          2.98836207   -0.06584300    1.34825206
 H          4.91950703   -1.66888797    1.24394405
 H          3.58524990    0.74619800    0.91335899
 O          4.54175615   -1.63688099    0.35568100
 O          3.45912409   -0.37627199    2.65114903
 H          3.51494598    0.44351199    3.15666294
 H         -3.97486401    2.28858805    0.87069499
 H         -1.63063204    2.31575489    0.96695101
 C         -3.59147811    1.34699297    1.26904500
 C         -2.04173398    1.33572805    1.20723498
 H         -3.90770411    1.26391494    2.31004095
 H         -1.59391797    0.97503197    2.13250208
 H         -4.37262487    1.25145495   -1.42836595
 H         -2.11084890    1.81239903   -1.32359099
 C         -3.79203296    0.41603500   -1.03388298
 C         -2.28096390    0.75009203   -1.15279901
 C         -4.12035894    0.16930100    0.44284800
 N         -1.65512705    0.40228701    0.13529900
 H         -5.19822121    0.06754800    0.57743102
 H         -0.19682001    0.54631102    0.00095800
 H         -4.02621889   -0.47092399   -1.62620401
 H         -1.79077101    0.17213400   -1.93585598
 C         -1.90917599   -1.00117695    0.50163603
 C         -3.40696692   -1.11083102    0.89223802
 H         -1.25357604   -1.26580405    1.33006597
 H         -3.50298691   -1.23789597    1.97238004
 H         -1.66233504   -1.61489999   -0.36377800
 H         -3.83867311   -1.98723197    0.40638399
