48
wb97x-d4 ma-def2-tzvp(-f) cpcm(dmso) E: -1056.428399026858, G: -1056.0526864800001
 H          1.20355797    1.85956502   -3.35276699
 C          0.92418200    1.02226400   -2.71717191
 H          3.85084295   -2.86973190   -1.17310798
 H         -0.15712100    0.87189400   -2.75565290
 H          1.43639696    0.11640700   -3.04245710
 O          1.28602505   -0.82284898   -0.66160297
 H          2.30492711   -2.77412796   -2.03904295
 C          1.00956798    0.50319099   -0.39177400
 C          2.79801798   -2.60299897   -1.07610297
 O          1.32545900    1.38884699   -1.38686204
 O          1.27213895    2.33328700    1.18827605
 C          2.69885302   -1.12789702   -0.73578900
 H          1.29476798   -3.28173995   -0.03770300
 C          1.60328603    0.98814100    0.93269998
 O          2.24581003   -3.44058800   -0.06836700
 H          3.15716696   -0.55065101   -1.54679799
 H          1.61875403    2.87599707    0.46757701
 H          2.92886996   -1.37140596    1.38482404
 H          1.15715694    0.39673099    1.73646498
 C          3.36000204   -0.75410700    0.58567101
 C          3.11044097    0.71553999    0.91705698
 H          5.18238497   -0.65159702    1.23776805
 H          3.58547902    1.34149694    0.15541600
 O          4.74906683   -1.01421106    0.45419401
 O          3.73143792    1.06762099    2.14442205
 H          3.30187702    0.58115399    2.86103201
 H         -3.43962097    0.85569102    2.53110695
 H         -1.16309702    0.74827898    2.05720091
 C         -3.22628808    0.00759500    1.87757099
 C         -1.72310495    0.00557200    1.49065495
 H         -3.45762610   -0.90900499    2.42249894
 H         -1.26289499   -0.97411102    1.61913598
 H         -4.20136786    2.27152300    0.54178101
 H         -1.86752200    2.37455010    0.49063200
 C         -3.79895210    1.46027005   -0.06708400
 C         -2.26651907    1.65414405   -0.22241600
 C         -4.05865288    0.10244100    0.59569198
 N         -1.63315797    0.35486200    0.06193600
 H         -5.11935377   -0.00533600    0.82750702
 H         -0.20310099    0.50183898   -0.23456100
 H         -4.28047800    1.49907506   -1.04620695
 H         -1.98953795    1.95480597   -1.23241603
 C         -2.15225697   -0.71940899   -0.80385101
 C         -3.61121106   -1.00824404   -0.36063501
 H         -1.50554395   -1.58880997   -0.68905699
 H         -3.66599298   -1.97884905    0.13630500
 H         -2.10117197   -0.36550400   -1.83266199
 H         -4.25188780   -1.04160798   -1.24333405
