48
wb97x-d4 ma-def2-tzvp(-f) cpcm(dmso) E: -1056.428588403635, G: -1056.05265159
 H         -0.15377399    0.92545998   -2.77011704
 C          0.93421799    1.01329398   -2.72867203
 H          3.78986907   -2.91688490   -1.12573302
 H          1.39439404    0.07221100   -3.03089595
 H          1.26491404    1.81879199   -3.38053894
 O          1.26605594   -0.81329399   -0.64447302
 H          2.24818802   -2.80246210   -1.99669194
 C          1.01411796    0.52199602   -0.39588699
 C          2.74259806   -2.62704897   -1.03517699
 O          1.34842002    1.38576102   -1.40409899
 O          1.31517601    2.37616110    1.14818704
 C          2.67229795   -1.14532995   -0.71690500
 H          1.22337198   -3.25749898    0.01003600
 C          1.61655295    1.01880300    0.92020297
 O          2.17075396   -3.43768406   -0.01637100
 H          3.13972306   -0.58914399   -1.53741002
 H          1.67018998    2.89507008    0.41411099
 H          2.90127993   -1.36205304    1.40647304
 H          1.15682495    0.45490900    1.73580205
 C          3.34158802   -0.76375002    0.59792602
 C          3.11817193    0.71463102    0.90882498
 H          5.16663885   -0.68155801    1.24562299
 H          3.60500789    1.32060397    0.13851701
 O          4.72599220   -1.04912806    0.46847999
 O          3.74681902    1.07136405    2.13107896
 H          3.31027508    0.60057002    2.85392189
 H         -3.53546596    0.44143799    2.67050695
 H         -1.38998103    1.07491100    2.00288796
 C         -3.20045900   -0.17830200    1.83720696
 C         -1.72054505    0.15912300    1.51341903
 H         -3.28630900   -1.22504997    2.13530397
 H         -1.04907405   -0.65710199    1.77941203
 H         -3.95401311    2.22876692    0.91655701
 H         -1.77193499    2.45314288    0.09161400
 C         -3.77420592    1.51870000    0.10688700
 C         -2.29730105    1.61361504   -0.36245799
 C         -4.04571390    0.08897500    0.58743101
 N         -1.62418997    0.37220901    0.05857400
 H         -5.10505104   -0.03382700    0.81820500
 H         -0.19781099    0.53814900   -0.23965500
 H         -4.43122911    1.77817094   -0.72476399
 H         -2.21512008    1.68096805   -1.44654298
 C         -2.08966303   -0.80337900   -0.69790602
 C         -3.62823391   -0.89221299   -0.51245397
 H         -1.57376599   -1.67491603   -0.29627699
 H         -3.89887404   -1.91426396   -0.24271999
 H         -1.81041801   -0.66943502   -1.74189496
 H         -4.13031387   -0.64347202   -1.44955099
