48
wb97x-d4 ma-def2-tzvp(-f) cpcm(dmso) E: -1056.42830996138, G: -1056.05250146
 H          0.25245100    2.60341811   -1.04693305
 C          1.32416201    2.45176101   -0.90203100
 H          2.03328395   -2.31924391   -2.43250394
 H          1.75937402    2.00772095   -1.79750001
 H          1.80455399    3.40311503   -0.68497801
 O          1.25134003   -0.34482399   -0.95806199
 H          3.68032694   -1.73041797   -2.74279189
 C          1.04461598    0.35703599    0.21381199
 C          2.65773106   -1.42284000   -2.52454400
 O          1.55880797    1.62572205    0.25053599
 O          1.21320200    0.28627101    2.63973093
 C          2.63896298   -0.66816503   -1.21098399
 H          1.29905701   -0.38668099   -3.45966291
 C          1.49416995   -0.41973200    1.45254600
 O          2.22572303   -0.61110502   -3.60929799
 H          3.21324992    0.26071501   -1.30968595
 H          1.70738602    1.11691499    2.62891507
 H          2.67275095   -2.45885611   -0.01838100
 H          0.91751897   -1.34658694    1.49425006
 C          3.18786311   -1.49379301   -0.04952500
 C          2.96842694   -0.78366399    1.28635097
 H          5.05984592   -0.96436298   -0.28150001
 H          3.56722593    0.13891900    1.29847503
 O          4.56569386   -1.79434395   -0.23304200
 O          3.33789206   -1.62139201    2.36910510
 H          4.24766111   -1.90600598    2.21391010
 H         -3.82202506   -0.93011397   -1.45915496
 H         -1.53793204   -0.41427600   -1.63212001
 C         -3.61955094    0.07272000   -1.07769799
 C         -2.09298396    0.34917399   -1.08847499
 H         -4.11630297    0.79144901   -1.73124695
 H         -1.85711300    1.32878900   -1.50164902
 H         -3.91310811   -1.89753497    0.88101798
 H         -1.63766003   -1.74019396    0.36357301
 C         -3.51767111   -0.93047500    1.19580197
 C         -1.97874105   -0.92003900    0.99441200
 C         -4.12570715    0.20252199    0.36327600
 N         -1.63507795    0.33920100    0.31219199
 H         -5.21498680    0.14425500    0.38690799
 H         -0.17188700    0.42178899    0.28284299
 H         -3.75502491   -0.79292101    2.25242209
 H         -1.44885504   -0.94761598    1.94562900
 C         -2.10858893    1.51490998    1.06231105
 C         -3.65561104    1.54496896    0.93534899
 H         -1.64397597    2.40270591    0.63523299
 H         -3.95972300    2.36229396    0.27852100
 H         -1.77997994    1.39810503    2.09432197
 H         -4.09077406    1.72070301    1.92032802
