48
wb97x-d4 ma-def2-tzvp(-f) cpcm(dmso) E: -1056.427996603051, G: -1056.05229231
 H          1.22492003    1.83465397   -3.27096891
 C          0.92670000    0.98617202   -2.65930796
 H          1.98995697   -2.88621998   -1.91055202
 H         -0.15414099    0.84211999   -2.72465706
 H          1.44120502    0.08426100   -2.99190688
 O          1.18664098   -0.90129399   -0.62584400
 H          2.30606103   -3.31237197   -0.21585000
 C          0.94184899    0.43042800   -0.33995900
 C          2.65531206   -2.70982409   -1.06352305
 O          1.30193996    1.32279003   -1.31284797
 O          1.26560295    2.22062707    1.28827298
 C          2.58987594   -1.23200798   -0.69582802
 H          4.56950808   -2.82767391   -0.76798898
 C          1.52908695    0.86431998    1.00246799
 O          3.95994210   -3.09915090   -1.46892905
 H          3.07085204   -0.64207000   -1.48370504
 H          1.59424496    2.75696802    0.55383098
 H          2.77317500   -1.54390895    1.41981697
 H          1.05180097    0.27713600    1.78933096
 C          3.23902893   -0.91699702    0.64826000
 C          3.02704501    0.54402000    1.01377702
 H          5.03411818   -1.07879996    1.39446700
 H          3.53940296    1.17682695    0.27812299
 O          4.62345791   -1.22723401    0.53360301
 O          3.57893896    0.74243498    2.30563402
 H          3.56611800    1.68788397    2.49760008
 H         -3.53273797    0.99730802    2.50169396
 H         -1.25427902    0.81003499    2.05807090
 C         -3.33784294    0.12732901    1.87159395
 C         -1.83050096    0.06890400    1.50587201
 H         -3.60562897   -0.76802099    2.43477702
 H         -1.40280998   -0.92025399    1.66888595
 H         -4.21649218    2.38824511    0.46735799
 H         -1.87993503    2.41201091    0.43645900
 C         -3.83625388    1.54848802   -0.11654200
 C         -2.29624701    1.68478203   -0.25967300
 C         -4.15007401    0.21744999    0.57654101
 N         -1.71077704    0.37354100    0.06933400
 H         -5.21664381    0.15120199    0.79677302
 H         -0.27533299    0.45822400   -0.20936200
 H         -4.30575180    1.57919097   -1.10178602
 H         -2.00007892    1.94686103   -1.27476799
 C         -2.25421405   -0.70697498   -0.77335000
 C         -3.72933507   -0.93143898   -0.34646699
 H         -1.64037800   -1.59447205   -0.62230903
 H         -3.82666802   -1.88715899    0.17228401
 H         -2.17269993   -0.38541099   -1.81087005
 H         -4.35795593   -0.96292901   -1.23783600
