48
wb97x-d4 ma-def2-tzvp(-f) cpcm(dmso) E: -1056.427738937543, G: -1056.0522868
 H         -0.16400900    0.48308399   -2.67390800
 C          0.84591699    0.89248699   -2.60189700
 H          2.27218604   -2.83721995   -2.07555199
 H          1.56141198    0.17255799   -3.00065494
 H          0.90829802    1.82720697   -3.15475392
 O          1.27635205   -1.03342903   -0.66448498
 H          2.66401100   -3.33957696   -0.41769099
 C          0.90628803    0.24940600   -0.30607101
 C          2.92793012   -2.64480805   -1.22451794
 O          1.16256201    1.22139394   -1.23743403
 O          1.06131995    1.97006404    1.41566598
 C          2.70643306   -1.21129704   -0.75608999
 H          4.84666014   -2.57680798   -0.94970101
 C          1.45867801    0.66474003    1.05642402
 O          4.26143217   -2.85419393   -1.66870701
 H          3.11911607   -0.52332801   -1.50167894
 H          1.34606397    2.57956100    0.72119302
 H          2.92771912   -1.63433003    1.33644795
 H          1.03923297   -0.00940900    1.80662596
 C          3.32807589   -0.91953599    0.60568398
 C          2.97921491    0.49047199    1.05665302
 H          5.13255310   -0.96864599    1.34553504
 H          3.42754197    1.21104598    0.36068401
 O          4.73504114   -1.08873999    0.47426999
 O          3.51100802    0.66472399    2.36041808
 H          3.40365291    1.59055495    2.60984302
 H         -3.51136398    1.33168101    2.40854812
 H         -1.26468599    0.79078299    2.07632494
 C         -3.42009711    0.38194400    1.87759399
 C         -1.92678297    0.09336700    1.56535804
 H         -3.80945301   -0.40731901    2.52251792
 H         -1.64273000   -0.92866099    1.81433403
 H         -4.01550484    2.58092499    0.23329701
 H         -1.69058299    2.33170009    0.32046700
 C         -3.71341801    1.64990997   -0.24898100
 C         -2.16466188    1.60302603   -0.33571500
 C         -4.19322014    0.43669599    0.55553102
 N         -1.74481905    0.26453599    0.11388700
 H         -5.26425409    0.51332802    0.74882603
 H         -0.30222100    0.18884499   -0.15466800
 H         -4.14424610    1.63135600   -1.25208795
 H         -1.80914700    1.75237703   -1.35424101
 C         -2.39230895   -0.81329501   -0.65407598
 C         -3.88909698   -0.83547902   -0.24351400
 H         -1.88457096   -1.74811101   -0.41795400
 H         -4.09706783   -1.71972096    0.36226600
 H         -2.25925589   -0.58746099   -1.71135497
 H         -4.50520277   -0.88639998   -1.14266300
