48
wb97x-d4 ma-def2-tzvp(-f) cpcm(dmso) E: -1056.428287370591, G: -1056.05221086
 H          1.34957898   -1.14308000   -2.84536409
 C          0.77463198   -0.21770000   -2.89080906
 H          2.05909801   -3.34075189   -0.58738500
 H          0.97496802    0.30120799   -3.82561398
 H         -0.29144001   -0.44006899   -2.80953598
 O          1.20027804   -1.01479495   -0.25546700
 H          2.42084193   -2.96821189    1.11101604
 C          0.90186101    0.30034801   -0.56398302
 C          2.73143697   -2.79111099    0.07391300
 O          1.17719698    0.68673098   -1.84797001
 O          1.20318103    2.63187504    0.08279900
 C          2.61345911   -1.30470204   -0.24128500
 H          4.65422487   -2.70416403    0.31935200
 C          1.51816404    1.29744697    0.41524699
 O          4.04397106   -3.28129292   -0.16161899
 H          3.04383492   -1.10724998   -1.22917295
 H          1.46776402    2.78740692   -0.83415502
 H          2.87387300   -0.64947599    1.78666997
 H          1.09467602    1.11156297    1.40417898
 C          3.28901100   -0.41429600    0.79790801
 C          3.02738905    1.05226195    0.49191701
 H          5.10978222   -0.19476700    1.46466005
 H          3.48690701    1.30637097   -0.47178799
 O          4.68194818   -0.70835298    0.76828301
 O          3.61311102    1.81509805    1.53511000
 H          3.55218506    2.74832702    1.29746699
 H         -3.94352794   -1.90863395    0.80342603
 H         -1.62530196   -1.67434299    0.61589301
 C         -3.69759297   -1.10518003    0.10727100
 C         -2.16325903   -1.08869600   -0.12857001
 H         -4.21688080   -1.29910803   -0.83340698
 H         -1.89743805   -1.44079804   -1.12434900
 H         -3.28233004   -0.23574500    2.61277294
 H         -1.07350504    0.18640199    1.98177695
 C         -3.23989391    0.57869703    1.88686001
 C         -1.78038895    0.77472198    1.39729905
 C         -4.11899900    0.25520700    0.67485201
 N         -1.71831095    0.30886701    0.00157700
 H         -5.16960001    0.23111500    0.96824801
 H         -0.30400500    0.34768501   -0.38344100
 H         -3.57829595    1.49177098    2.37899995
 H         -1.47919405    1.82187998    1.40850997
 C         -2.43592906    1.21103001   -0.91558897
 C         -3.89454103    1.32872403   -0.39665899
 H         -2.38819003    0.77266800   -1.91187298
 H         -4.58240414    1.19203401   -1.23259497
 H         -1.91970503    2.17073202   -0.91882402
 H         -4.06263208    2.32235098    0.02344400
