48
wb97x-d4 ma-def2-tzvp(-f) cpcm(dmso) E: -1056.426704846186, G: -1056.05211471
 H          1.31816697   -1.19453096   -2.88770103
 C          0.73148400   -0.27687100   -2.94372511
 H          4.04997396   -2.89619303   -0.22230600
 H          0.90777200    0.22202800   -3.89433408
 H         -0.33066800   -0.51085001   -2.83899903
 O          1.30571496   -1.02256894   -0.32773599
 H          2.42180300   -3.28589010   -0.82404703
 C          0.92320001    0.27152300   -0.63646197
 C          2.98194909   -2.70033312   -0.08686100
 O          1.13736200    0.65794802   -1.93140399
 O          1.08379996    2.58625388   -0.04107700
 C          2.73615694   -1.23335600   -0.35450301
 H          2.77582693   -3.95031595    1.39475095
 C          1.50715005    1.29005003    0.33531800
 O          2.56754589   -3.02277589    1.23743701
 H          3.11819911   -1.00707805   -1.35640001
 H          1.13048303    3.15300012    0.73775899
 H          3.04447198   -0.54530400    1.65989399
 H          1.13985503    1.03777695    1.33502305
 C          3.39987707   -0.29866600    0.65243602
 C          3.02936697    1.14457297    0.34156200
 H          5.21853018    0.17613401    1.11722505
 H          3.42548203    1.41816103   -0.64225501
 O          4.80292797   -0.49542499    0.56105798
 O          3.60985589    1.96399498    1.34983003
 H          3.77870297    2.83765411    0.97965902
 H         -4.00404882   -1.89866304    0.76238698
 H         -1.67720997   -1.75913894    0.55799800
 C         -3.72864103   -1.08384800    0.09088200
 C         -2.19778895   -1.13124096   -0.16434599
 H         -4.26681089   -1.22098994   -0.84925300
 H         -1.96029496   -1.46851599   -1.17207694
 H         -3.23090196   -0.31986299    2.61298203
 H         -1.01283598    0.04481800    1.95969605
 C         -3.16674709    0.51734400    1.91502094
 C         -1.70914900    0.67268401    1.40415394
 C         -4.07919598    0.27419499    0.70890403
 N         -1.69054496    0.24237300   -0.00430000
 H         -5.12510014    0.28800601    1.01924503
 H         -0.27224901    0.25203201   -0.42304900
 H         -3.45769811    1.42542696    2.44538212
 H         -1.37201405    1.70816195    1.43652904
 C         -2.38212490    1.19818497   -0.88537699
 C         -3.82182288    1.37164998   -0.33048701
 H         -2.37643600    0.77915299   -1.89105999
 H         -4.53240108    1.29981506   -1.15542102
 H         -1.82132900    2.13229799   -0.87904298
 H         -3.92964602    2.35717607    0.12709200
