48
wb97x-d4 ma-def2-tzvp(-f) cpcm(dmso) E: -1056.427257779087, G: -1056.0520337300002
 H          1.50605500    2.41481304   -1.62891698
 C          1.09512699    2.70460010   -0.66160101
 H          1.93001902   -0.13533901   -3.48783302
 H          1.52539802    3.65037394   -0.33993301
 H          0.00828800    2.79479408   -0.72952801
 O          1.16770399   -0.05079000   -1.09577203
 H          2.07711005   -1.80154097   -2.89137912
 C          0.99579698    0.47166699    0.17341299
 C          2.53655601   -0.80540001   -2.87577009
 O          1.44714403    1.75069904    0.35467899
 O          1.33774304    0.12881200    2.55748391
 C          2.54946899   -0.27982301   -1.44487298
 H          4.40989208   -1.31301200   -2.83227801
 C          1.54673505   -0.43018800    1.28121603
 O          3.83795500   -0.82942098   -3.44506097
 H          3.10456705    0.66367197   -1.40694904
 H          1.79004502    0.98220903    2.59441209
 H          2.59329009   -2.21508694   -0.52442402
 H          0.98637199   -1.36852801    1.25549805
 C          3.14445710   -1.26727295   -0.44603300
 C          3.01670289   -0.74334598    0.98167300
 H          4.88978100   -2.08637500   -0.16334499
 H          3.61315393    0.16833700    1.08352196
 O          4.50932121   -1.46387196   -0.79611301
 O          3.56205201   -1.66932702    1.90878797
 H          3.02385402   -2.47229791    1.89803696
 H         -4.17357016   -0.32989001   -1.56462598
 H         -1.83927095   -0.46312499   -1.53625000
 C         -3.76145101    0.38170701   -0.84735698
 C         -2.21386600    0.38896701   -0.97028798
 H         -4.15792179    1.37122095   -1.08368194
 H         -1.84225202    1.30957198   -1.41739094
 H         -3.64688706   -2.08842397    0.20202699
 H         -1.33563995   -1.77149701    0.38424599
 C         -3.42110205   -1.31796503    0.94192100
 C         -1.89312601   -1.04697800    0.97769099
 C         -4.13780594   -0.01205000    0.58479100
 N         -1.66905499    0.28777099    0.39523700
 H         -5.21799421   -0.14193800    0.66725999
 H         -0.21804400    0.45506299    0.31093100
 H         -3.74234605   -1.68078995    1.91959202
 H         -1.50258303   -1.03220701    1.99479306
 C         -2.16023993    1.36372101    1.27380300
 C         -3.66441894    1.08803201    1.54168200
 H         -2.00042295    2.30886698    0.75608802
 H         -4.22975206    2.00787997    1.38373494
 H         -1.56927001    1.34849894    2.18893909
 H         -3.80757594    0.77520901    2.57793808
