48
wb97x-d4 ma-def2-tzvp(-f) cpcm(dmso) E: -1056.428473401371, G: -1056.0520138400002
 H         -0.03305500    0.93109298   -2.73269105
 C          1.04556203    1.06320405   -2.62032795
 H          3.89665294   -2.84784794   -1.28681505
 H          1.56609094    0.16876499   -2.96381402
 H          1.37350595    1.92950106   -3.19058704
 O          1.27394700   -0.89987200   -0.64731097
 H          2.29704094   -2.77490091   -2.04552603
 C          0.98914599    0.41295499   -0.32509199
 C          2.83730602   -2.64936996   -1.10480905
 O          1.36916399    1.35037899   -1.25003505
 O          1.20385802    2.15298390    1.37187195
 C          2.68839693   -1.20515299   -0.66064698
 H          2.95148396   -3.77125502    0.49430701
 C          1.51378000    0.81405997    1.05235195
 O          2.29149103   -3.58610892   -0.18307500
 H          3.18821812   -0.57142001   -1.40238595
 H          1.53260195    2.71915388    0.66019100
 H          2.78590989   -1.56509805    1.45810795
 H          1.02371800    0.18827300    1.80055296
 C          3.27413201   -0.91861898    0.71781600
 C          3.01614189    0.52886099    1.10668099
 H          5.05040884   -0.93043298    1.49954796
 H          3.53870010    1.19062400    0.40449899
 O          4.66491079   -1.19766200    0.65553802
 O          3.52192092    0.70872599    2.42115092
 H          3.49259710    1.65016603    2.62989497
 H         -3.55551291    0.94461900    2.38798809
 H         -1.27226400    0.69405800    2.00636411
 C         -3.37056494    0.09632900    1.72603595
 C         -1.85585904    0.00150500    1.40177596
 H         -3.68536091   -0.81261599    2.24100399
 H         -1.46765900   -1.00901401    1.52878594
 H         -4.13368702    2.44541192    0.40062201
 H         -1.79719698    2.39319110    0.44394001
 C         -3.76126003    1.62054801   -0.20899300
 C         -2.21358109    1.71298695   -0.29804000
 C         -4.13830614    0.27050900    0.41287801
 N         -1.68126202    0.36967200   -0.01394000
 H         -5.21288204    0.22921599    0.59736800
 H         -0.22896899    0.42163900   -0.24062300
 H         -4.19742298    1.71062195   -1.20587504
 H         -1.87685096    2.01170111   -1.29015899
 C         -2.23086095   -0.65090799   -0.92395401
 C         -3.72423506   -0.84920800   -0.54855400
 H         -1.64905202   -1.56393301   -0.80027801
 H         -3.86464691   -1.82336998   -0.07597500
 H         -2.10964990   -0.28189999   -1.94174099
 H         -4.32654905   -0.82206500   -1.45802402
