48
wb97x-d4 ma-def2-tzvp(-f) cpcm(dmso) E: -1056.428401255563, G: -1056.05164749
 H          1.57155097    0.21216200   -2.98809004
 C          0.95866901    1.03574395   -2.62042308
 H          3.97219610   -2.82453799   -1.19755602
 H          1.15782797    1.93681598   -3.19628906
 H         -0.09797900    0.77138102   -2.69819403
 O          1.32991099   -0.89118397   -0.65089798
 H          2.43426991   -2.74705195   -2.08015895
 C          0.99814898    0.40665400   -0.31913200
 C          2.91017509   -2.59662700   -1.10530901
 O          1.29646504    1.35696399   -1.26063597
 O          1.19322205    2.14879799    1.37573802
 C          2.75569010   -1.14043105   -0.70900601
 H          1.42004704   -3.35169697   -0.10140600
 C          1.55627596    0.82725501    1.03562105
 O          2.37417412   -3.49014091   -0.13698100
 H          3.20168090   -0.51641202   -1.49350500
 H          1.46998596    2.73469496    0.65785599
 H          3.03884101   -1.48761106    1.39866805
 H          1.12303805    0.17691299    1.79831696
 C          3.41109395   -0.80221200    0.63356298
 C          3.07435608    0.62556398    1.04418099
 H          5.19527578   -0.35853299   -0.03446700
 H          3.52745891    1.32202101    0.32337400
 O          4.81220198   -1.01780403    0.55884898
 O          3.59192896    0.85968202    2.34315991
 H          3.35901499    1.76366603    2.59058404
 H         -3.62113810    0.55898499    2.64219999
 H         -1.42730999    1.04413795    2.00811291
 C         -3.30351496   -0.10830400    1.83937800
 C         -1.79834497    0.13122000    1.54384506
 H         -3.45871902   -1.13713098    2.16999793
 H         -1.18268096   -0.71169102    1.85731697
 H         -3.87958789    2.30401993    0.82879502
 H         -1.67410898    2.36945701    0.03568700
 C         -3.73020291    1.56041300    0.04347400
 C         -2.24139595    1.54583299   -0.39681301
 C         -4.10007477    0.16576999    0.55926299
 N         -1.65538502    0.28369501    0.08606700
 H         -5.17024899    0.11310900    0.76547199
 H         -0.21135800    0.36615899   -0.18402000
 H         -4.35234594    1.83636904   -0.80941200
 H         -2.13690209    1.56509304   -1.48060000
 C         -2.16981101   -0.88784802   -0.64225799
 C         -3.71546698   -0.87477201   -0.49786201
 H         -1.72070897   -1.77415597   -0.19501600
 H         -4.05620718   -1.86883795   -0.20388600
 H         -1.85372102   -0.80911100   -1.68160498
 H         -4.17628479   -0.62647903   -1.45599496
