48
wb97x-d4 ma-def2-tzvp(-f) cpcm(dmso) E: -1056.426677500928, G: -1056.05157003
 H          1.66883397    2.82329392   -2.19527793
 C          1.19784296    1.87781596   -1.93517900
 H          1.96540201   -3.00870705   -1.28319097
 H          0.11827800    1.94825995   -2.08799911
 H          1.60641098    1.07349706   -2.54761600
 O          1.21181500   -0.63788301   -0.72852802
 H          3.66042995   -2.66852403   -1.68684006
 C          1.00529897    0.51406902    0.00916300
 C          2.64447594   -2.26488090   -1.70662200
 O          1.48696804    1.66817796   -0.54348499
 O          1.22713101    1.54602301    2.15669990
 C          2.60213089   -1.01381803   -0.85170197
 H          2.89908099   -1.52765703   -3.49720407
 C          1.48609495    0.35414800    1.44523597
 O          2.21140289   -2.02754307   -3.04173708
 H          3.15001798   -0.20554800   -1.35269904
 H          1.50320899    1.40405202    3.07085609
 H          2.71011496   -2.10280609    1.00600696
 H          0.93470103   -0.48658401    1.88185501
 C          3.19498491   -1.23858595    0.54190999
 C          2.96577907   -0.01253400    1.42327905
 H          5.04703093   -0.81306100    0.06908500
 H          3.53591108    0.83310503    1.01610899
 O          4.57941008   -1.55465496    0.47659701
 O          3.34814095   -0.25986400    2.76821995
 H          4.29647303   -0.43873501    2.77874494
 H         -4.30269194    2.24575305   -0.23764500
 H         -2.02648306    2.25304008   -0.74350101
 C         -3.75684810    1.61939001    0.46965700
 C         -2.23399210    1.76469398    0.20781200
 H         -3.99571609    1.95897806    1.47936201
 H         -1.72634697    2.30259800    1.00786304
 H         -4.03521585    0.28880399   -1.85753500
 H         -1.70126998    0.20142201   -1.93707299
 C         -3.64912295   -0.34951901   -1.06037104
 C         -2.09646606   -0.31995401   -1.06663597
 C         -4.14425182    0.14626200    0.30267301
 N         -1.66959798    0.40587699    0.14138900
 H         -5.22721910    0.03282800    0.37232399
 H         -0.21220200    0.56929803    0.06174600
 H         -3.98914409   -1.36942995   -1.24689901
 H         -1.66394699   -1.31852603   -1.01895297
 C         -1.93510401   -0.36606500    1.36709201
 C         -3.45757008   -0.66983902    1.40286100
 H         -1.61613595    0.24105901    2.21369910
 H         -3.85273910   -0.40432799    2.38461399
 H         -1.33778703   -1.27683306    1.32772195
 H         -3.62752199   -1.73656297    1.24411595
