48
wb97x-d4 ma-def2-tzvp(-f) cpcm(dmso) E: -1056.427300285283, G: -1056.05149015
 H          1.68284798    2.39601493   -1.65742505
 C          1.17820597    2.71204805   -0.74378198
 H          3.76293993   -0.95859700   -2.98428607
 H          1.53570104    3.69328403   -0.43923500
 H          0.09918500    2.74468994   -0.91057903
 O          1.24926698   -0.05683900   -1.00311399
 H          2.20912504   -0.18868700   -3.38170290
 C          1.03929102    0.53765500    0.22560200
 C          2.70929098   -0.88329798   -2.69826388
 O          1.48741806    1.82703400    0.34538600
 O          1.30021906    0.32506001    2.63480592
 C          2.64134407   -0.31129399   -1.30049503
 H          2.11027002   -2.48909402   -3.62840199
 C          1.55765200   -0.29810300    1.39759898
 O          2.08037090   -2.16148400   -2.72296596
 H          3.19363499    0.63495803   -1.29673600
 H          1.74900103    1.18094504    2.64494205
 H          2.68130708   -2.18538404   -0.25154999
 H          1.00761700   -1.24282098    1.40162802
 C          3.21673107   -1.22777295   -0.22641100
 C          3.03937697   -0.60571498    1.15699399
 H          4.98059511   -1.88662899    0.23152800
 H          3.61687207    0.32234499    1.20967305
 O          4.59155178   -1.42162800   -0.52047098
 O          3.58078289   -1.45211101    2.16041803
 H          3.06306601   -2.26814890    2.19003201
 H         -3.66127801   -1.18336201   -1.40143096
 H         -1.44612300   -0.41915300   -1.59059000
 C         -3.56981492   -0.15576200   -1.04367399
 C         -2.08156204    0.28157800   -1.05030406
 H         -4.13350105    0.49032700   -1.71853006
 H         -1.94956601    1.28019094   -1.46518695
 H         -3.70149803   -2.10595298    0.96235698
 H         -1.45619202   -1.74898601    0.41299301
 C         -3.39370298   -1.09955800    1.25056505
 C         -1.86288905   -0.95763302    1.04237998
 C         -4.09887886   -0.04593900    0.39105299
 N         -1.63217199    0.32311100    0.35223001
 H         -5.17807198   -0.20511501    0.40919301
 H         -0.17545199    0.53006798    0.32027400
 H         -3.64138007   -0.95636600    2.30423594
 H         -1.32766497   -0.93560600    1.99087596
 C         -2.21851397    1.45533597    1.09036005
 C         -3.75973105    1.34489298    0.94019997
 H         -1.83020604    2.38026404    0.66633803
 H         -4.12430906    2.11820507    0.26086500
 H         -1.89635205    1.37103200    2.12785411
 H         -4.22480917    1.50200105    1.91475105
