48
wb97x-d4 ma-def2-tzvp(-f) cpcm(dmso) E: -1056.428021358046, G: -1056.05129878
 H          0.02551500    2.64923906   -0.85184300
 C          1.08107603    2.66975093   -0.57280999
 H          2.08682108    0.06041100   -3.52761412
 H          1.69795406    2.52950811   -1.46093202
 H          1.32099402    3.61750603   -0.09593600
 O          1.21329904   -0.03477800   -1.18811405
 H          2.31174707   -1.63641405   -3.05409503
 C          0.95635802    0.38400900    0.10458800
 C          2.70484209   -0.61891103   -2.93778896
 O          1.36086595    1.65661895    0.40844199
 O          1.20251703   -0.13991100    2.47182608
 C          2.61822104   -0.20579199   -1.47327006
 H          4.59952784   -1.02469695   -2.84006000
 C          1.47923195   -0.58645099    1.16215599
 O          4.03092194   -0.51916999   -3.43817997
 H          3.14399791    0.74523002   -1.33506703
 H          1.55853605    0.75370502    2.57016206
 H          2.67877197   -2.20460701   -0.69044900
 H          0.95818502   -1.53802800    1.03666794
 C          3.19243908   -1.24944496   -0.51916701
 C          2.97204494   -0.82649702    0.92457402
 H          4.93995285   -2.07467103   -0.25324500
 H          3.52497196    0.10204800    1.11524999
 O          4.57875013   -1.37814105   -0.81554598
 O          3.45809388   -1.87010896    1.75350595
 H          3.46443200   -1.55485702    2.66524196
 H         -4.05710316   -0.95239300   -1.29549801
 H         -1.81163704   -0.37190101   -1.65241599
 C         -3.82987905    0.01432900   -0.84171200
 C         -2.31698489    0.32791400   -0.98754901
 H         -4.40466118    0.77951002   -1.36593497
 H         -2.13961101    1.34541404   -1.33375299
 H         -3.87493205   -2.13847995    0.94233400
 H         -1.67251301   -1.87087297    0.20755500
 C         -3.46626091   -1.19374204    1.30417299
 C         -1.95766497   -1.12154496    0.94570899
 C         -4.18093109   -0.00589100    0.65038699
 N         -1.71322203    0.20410800    0.35104901
 H         -5.26015711   -0.09742800    0.78168303
 H         -0.25948000    0.33672401    0.18587001
 H         -3.59257388   -1.16104400    2.38818407
 H         -1.32715595   -1.22020602    1.82820904
 C         -2.12662911    1.29185796    1.25423598
 C         -3.67794800    1.29070199    1.29462898
 H         -1.72923195    2.22949600    0.86804599
 H         -4.06608200    2.15607405    0.75378501
 H         -1.68783903    1.08895898    2.23040199
 H         -4.00757313    1.36287200    2.33231401
