48
wb97x-d4 ma-def2-tzvp(-f) cpcm(dmso) E: -1056.427360254757, G: -1056.0511928600001
 H          0.02813800    2.28781009   -2.02024794
 C          1.10778296    2.15311289   -1.93189502
 H          1.81380105   -1.72340596   -3.03871489
 H          1.44875705    1.39494801   -2.63712192
 H          1.61408901    3.09674811   -2.12280989
 O          1.11765301   -0.47929600   -0.98058999
 H          1.97093594   -2.90666389   -1.72375000
 C          0.97523898    0.59637499   -0.12171500
 C          2.43360090   -2.03015900   -2.19413495
 O          1.45084596    1.79287302   -0.58368599
 O          1.41384995    1.44123197    2.12568998
 C          2.48582292   -0.88533098   -1.18994200
 H          4.30532312   -2.47822499   -1.95015895
 C          1.54337800    0.32571799    1.27124202
 O          3.72066593   -2.34085798   -2.70926690
 H          3.05776596   -0.05466400   -1.61792195
 H          1.82623601    2.20229411    1.69471800
 H          2.52512908   -2.13892698    0.55175000
 H          0.96873200   -0.48657501    1.72195601
 C          3.08967209   -1.28638995    0.15259600
 C          2.99886489   -0.13362899    1.13940203
 H          4.81303310   -1.97718799    0.75148600
 H          3.60885906    0.70127201    0.77148497
 O          4.44282389   -1.66161394   -0.08215600
 O          3.49746895   -0.59996802    2.38349009
 H          3.55852199    0.15137701    2.98573494
 H         -3.37780499   -1.89790297    1.37848604
 H         -1.17473304   -1.55618894    0.66820198
 C         -3.35828400   -1.32032299    0.45223400
 C         -1.89035797   -1.01934505    0.04660500
 H         -3.83093095   -1.91654694   -0.32998800
 H         -1.69721901   -1.24755001   -1.00057006
 H         -3.67779803    0.21840601    2.76378608
 H         -1.39805806    0.19662900    2.28372002
 C         -3.48335195    0.75251102    1.83227503
 C         -1.94992399    0.85571402    1.61481905
 C         -4.09744215    0.00847500    0.64175099
 N         -1.67034900    0.42446300    0.23319601
 H         -5.15826178   -0.17437100    0.81983101
 H         -0.24084800    0.65499198    0.01481200
 H         -3.91545510    1.75160396    1.91692996
 H         -1.58308196    1.87449205    1.73058701
 C         -2.41097593    1.22484398   -0.75757003
 C         -3.91439509    0.86251700   -0.61752498
 H         -2.02435088    0.97863001   -1.74569404
 H         -4.24696493    0.31213799   -1.49979496
 H         -2.21675205    2.27507210   -0.54238498
 H         -4.49965096    1.78087604   -0.54914802
