48
wb97x-d4 ma-def2-tzvp(-f) cpcm(dmso) E: -1056.426740139511, G: -1056.05085805
 H          0.19461700    2.52984691   -1.20264697
 C          1.26321900    2.49942207   -0.97869498
 H          2.05221891   -2.07793188   -2.67608809
 H          1.80760801    2.12319994   -1.84542596
 H          1.61523700    3.49557590   -0.71944797
 O          1.25862598   -0.26714200   -1.06364298
 H          3.75027895   -1.58234203   -2.82549691
 C          1.02972806    0.40495399    0.12347800
 C          2.73016000   -1.22104502   -2.67126799
 O          1.51028001    1.68437696    0.17964201
 O          1.21615601    0.30864099    2.50684500
 C          2.65490508   -0.53832000   -1.31964099
 H          3.01482797    0.28766900   -3.87762690
 C          1.48737502   -0.41262701    1.32460403
 O          2.32230306   -0.36812699   -3.73470902
 H          3.21056199    0.40582401   -1.34954095
 H          1.50581396   -0.23290201    3.25199389
 H          2.69450903   -2.37930799   -0.20892900
 H          0.92379397   -1.35391903    1.30434406
 C          3.21144605   -1.40858805   -0.19574800
 C          2.97072506   -0.74341798    1.15657794
 H          4.97097301   -2.03991103    0.33144301
 H          3.55420995    0.17916600    1.21334898
 O          4.59973812   -1.58385205   -0.43456599
 O          3.43608499   -1.55946195    2.22478890
 H          2.96205091   -2.40251398    2.20165992
 H         -4.14513922   -0.70558703   -1.41514301
 H         -1.81268001   -0.72907698   -1.46344197
 C         -3.75117707    0.18971100   -0.93135202
 C         -2.20148396    0.20263900   -1.05453897
 H         -4.16864204    1.06150699   -1.43845201
 H         -1.84372997    1.03654599   -1.65684605
 H         -3.77501798   -1.91851699    0.78220099
 H         -1.45816898   -1.68714094    0.66624600
 C         -3.46516299   -0.98269898    1.25065100
 C         -1.92374396   -0.82502198    1.14268100
 C         -4.13075209    0.20723900    0.55316597
 N         -1.65496695    0.35461500    0.30374300
 H         -5.21486092    0.14325400    0.66045898
 H         -0.18781000    0.44190100    0.18596500
 H         -3.75154591   -1.01905000    2.30302501
 H         -1.46009099   -0.65170699    2.11295009
 C         -2.08633900    1.60659695    0.94756401
 C         -3.61811304    1.50527000    1.18507695
 H         -1.82943594    2.42800307    0.27964899
 H         -4.11092281    2.36933208    0.73649400
 H         -1.53018200    1.71200800    1.87835896
 H         -3.82748389    1.51291203    2.25629997
