48
wb97x-d4 ma-def2-tzvp(-f) cpcm(dmso) E: -1056.426862353384, G: -1056.05074016
 H         -0.27611899   -0.44463199   -2.80010104
 C          0.78982198   -0.21486799   -2.86413908
 H          2.21909404   -3.25436902   -0.49601999
 H          1.37134504   -1.13228297   -2.76864409
 H          1.00790799    0.26951900   -3.81331992
 O          1.22896099   -0.92275298   -0.21242900
 H          2.33223200   -2.76677394    1.21501005
 C          0.89394099    0.37349001   -0.55361497
 C          2.76899290   -2.63537097    0.21965300
 O          1.15584397    0.73364103   -1.84819198
 O          1.08445406    2.72236204    0.03005600
 C          2.64929199   -1.17503798   -0.18666300
 H          4.25989580   -3.82221794    0.67768598
 C          1.47609103    1.41978896    0.39843199
 O          4.15634584   -2.97681093    0.22618200
 H          3.07324505   -1.02642298   -1.18607795
 H          1.39922297    2.89158010   -0.86784101
 H          2.94684911   -0.43351400    1.80911100
 H          1.06744099    1.23722005    1.39467800
 C          3.32008100   -0.21690100    0.79853100
 C          2.98941898    1.23119104    0.45840400
 H          4.94770479   -1.27571404    0.80308598
 H          3.42032599    1.46817696   -0.52351999
 O          4.73581600   -0.33030000    0.75538802
 O          3.50374508    2.11304212    1.44424403
 H          4.45440006    1.95376098    1.50236702
 H         -3.56781697   -1.72897196    1.37143004
 H         -1.43364501   -1.69230902    0.39563999
 C         -3.58393192   -1.19045997    0.42180100
 C         -2.14617395   -1.07384598   -0.14892299
 H         -4.20121813   -1.75501502   -0.27882200
 H         -2.10286593   -1.32329595   -1.20867896
 H         -3.51869988    0.43856600    2.69677401
 H         -1.31269503    0.07182900    2.01194501
 C         -3.33648300    0.91279900    1.73111296
 C         -1.82707500    0.80020398    1.38531005
 C         -4.14179993    0.22258601    0.62496299
 N         -1.73150098    0.33337900   -0.00895900
 H         -5.19624376    0.17528699    0.90127701
 H         -0.31371701    0.39608899   -0.37397501
 H         -3.62285304    1.96354604    1.80862296
 H         -1.32280803    1.76298797    1.45669997
 C         -2.45573807    1.22342300   -0.93315399
 C         -3.97191811    1.01428103   -0.67656201
 H         -2.17387390    0.96247298   -1.95238698
 H         -4.41943121    0.46978599   -1.51045501
 H         -2.13641691    2.24297500   -0.72037601
 H         -4.45944405    1.98787999   -0.60555297
