48
wb97x-d4 ma-def2-tzvp(-f) cpcm(dmso) E: -1056.426313141611, G: -1056.05067549
 H          0.06181200    2.39384699   -1.59816897
 C          1.13485003    2.44243503   -1.39861298
 H          2.04157591   -1.16499496   -3.15486407
 H          1.67921996    1.92000997   -2.18607211
 H          1.45591903    3.48064089   -1.34931099
 O          1.18588400   -0.28694001   -0.92498600
 H          1.95815504   -2.50532007   -1.98255098
 C          0.97850603    0.61051100    0.10932500
 C          2.53295588   -1.62660003   -2.29271698
 O          1.43040597    1.88085604   -0.10860200
 O          1.22003400    1.00346601    2.45848894
 C          2.56983709   -0.62906897   -1.14511597
 H          3.85965610   -2.76411104   -3.17918491
 C          1.48133004    0.06381700    1.43797898
 O          3.87860703   -1.98770201   -2.60841107
 H          3.13264489    0.26361200   -1.43956697
 H          1.59321594    0.64739197    3.27511001
 H          2.69111705   -2.16518092    0.35964200
 H          0.94507802   -0.87442899    1.62549698
 C          3.18207192   -1.20867705    0.13365699
 C          2.96415210   -0.25984201    1.30407202
 H          4.72782421   -1.85819697   -0.83991498
 H          3.52287698    0.66593599    1.12428403
 O          4.58431721   -1.38723397   -0.00420500
 O          3.36316395   -0.84177202    2.53834105
 H          4.32568693   -0.90448201    2.54329205
 H         -4.24684095    2.07173610   -0.29884499
 H         -1.95076096    2.45823407   -0.08678200
 C         -3.84246993    1.51764095    0.55057597
 C         -2.30240202    1.70896995    0.62111998
 H         -4.29413080    1.91443503    1.46115994
 H         -1.96406698    1.97209597    1.62286401
 H         -4.16099596   -0.00721100   -1.77182698
 H         -1.95463300    0.75580698   -1.76374698
 C         -3.60704994   -0.46173000   -0.94884098
 C         -2.11215210   -0.05901300   -1.05805802
 C         -4.14663410    0.02255700    0.40152499
 N         -1.68820906    0.41786200    0.26905200
 H         -5.22277784   -0.14780501    0.45942199
 H         -0.24039900    0.63024098    0.18684900
 H         -3.70829797   -1.54586399   -1.02807200
 H         -1.47659504   -0.89981300   -1.33265102
 C         -1.89940906   -0.59731102    1.31455696
 C         -3.43091989   -0.74039602    1.52091706
 H         -1.39677501   -0.26019499    2.22021103
 H         -3.71392798   -0.33607200    2.49467301
 H         -1.44298995   -1.52416599    0.96761501
 H         -3.69845605   -1.79797697    1.50087702
