48
wb97x-d4 ma-def2-tzvp(-f) cpcm(dmso) E: -1056.426407953535, G: -1056.0504176900001
 H          1.62292695    1.20342100   -2.69760609
 C          1.16095495    1.97639298   -2.08282995
 H          3.77007508   -2.39083695   -2.01182508
 H          1.56189203    2.95263696   -2.34642291
 H          0.07936700    1.96944797   -2.22897506
 O          1.27787304   -0.52869898   -0.85588801
 H          2.27136397   -1.88632405   -2.81127405
 C          1.04620302    0.61796403   -0.12244900
 C          2.72792006   -2.11627793   -1.84267497
 O          1.47551894    1.78623796   -0.69401401
 O          1.30330598    1.71243799    2.03179193
 C          2.67742205   -0.87273401   -0.97500300
 H          1.15413702   -3.04009008   -1.15652502
 C          1.57122099    0.53105497    1.31074297
 O          2.09525800   -3.23663998   -1.23602796
 H          3.21107602   -0.06556600   -1.48940802
 H          1.73206902    2.44911599    1.57635403
 H          2.81886411   -1.92808104    0.89821398
 H          1.03121197   -0.27269599    1.81826198
 C          3.29032993   -1.06564999    0.41397801
 C          3.06372809    0.16842000    1.28490901
 H          4.86073208   -2.21648192    0.22180200
 H          3.62619805    1.00818002    0.86414897
 O          4.69130421   -1.27033699    0.28519899
 O          3.56254292   -0.01082100    2.59914207
 H          3.11949396   -0.77315098    2.99413490
 H         -4.03631878    2.18722701    0.81221402
 H         -1.69585204    2.35637689    0.88059300
 C         -3.59358406    1.28668499    1.24259806
 C         -2.04664493    1.36392796    1.16178000
 H         -3.89339900    1.22760701    2.29008508
 H         -1.56888998    1.06537998    2.09403110
 H         -4.39955997    1.03664005   -1.43824506
 H         -2.17497206    1.73774600   -1.38459694
 C         -3.76470900    0.25437400   -1.01915503
 C         -2.27842093    0.67439401   -1.17122102
 C         -4.06069517    0.04745000    0.47043401
 N         -1.61730301    0.41457000    0.12040200
 H         -5.12889099   -0.11248900    0.62402999
 H         -0.17103299    0.63306999   -0.04499500
 H         -3.95099807   -0.66815501   -1.57294405
 H         -1.76300097    0.09732800   -1.93860495
 C         -1.78342199   -0.98654097    0.54268903
 C         -3.26720691   -1.16967595    0.95787299
 H         -1.10470498   -1.18022299    1.37186301
 H         -3.34238100   -1.26063299    2.04336405
 H         -1.50945604   -1.61767495   -0.30186599
 H         -3.65154791   -2.08830404    0.51191700
