48
wb97x-d4 ma-def2-tzvp(-f) cpcm(dmso) E: -1056.425829377908, G: -1056.04983468
 H          1.85724199    3.60269809   -0.82935399
 C          1.20043898    2.73785996   -0.89428401
 H          3.56185389   -1.19908595   -2.98234701
 H          0.15967099    3.05965710   -0.82532501
 H          1.36765599    2.20990610   -1.83282697
 O          1.18713200   -0.06567700   -0.95411003
 H          2.01439905   -0.40678099   -3.36290503
 C          1.04767096    0.62775099    0.23127200
 C          2.52835202   -1.06096303   -2.65010095
 O          1.53116906    1.90901005    0.23171200
 O          1.43970096    0.60765398    2.63417006
 C          2.55476594   -0.37258700   -1.30442595
 H          1.87040401   -2.73644209   -3.39842701
 C          1.61458099   -0.12177200    1.44159997
 O          1.85701299   -2.31137991   -2.53401995
 H          3.12274790    0.55820203   -1.41549504
 H          1.90984499    1.44775796    2.54951692
 H          2.63841510   -2.15793490   -0.11020600
 H          1.04836905   -1.05051398    1.55658996
 C          3.17785501   -1.20564997   -0.18908000
 C          3.07766509   -0.47023499    1.14585805
 H          4.96357822   -1.82548404    0.23777901
 H          3.66276407    0.45288101    1.08806002
 O          4.53580093   -1.43357801   -0.53474402
 O          3.67000699   -1.23404205    2.18621397
 H          3.14132190   -2.03138089    2.32743096
 H         -4.17728996    0.87413400   -1.52985895
 H         -1.84355605    0.98993498   -1.59844804
 C         -3.77734303    1.04289699   -0.52872199
 C         -2.24150610    1.25261199   -0.61853898
 H         -4.24903202    1.93874002   -0.12023700
 H         -1.96092200    2.27561808   -0.37509599
 H         -3.50874591   -1.54290795   -1.20153105
 H         -1.20555997   -1.21642900   -0.93489999
 C         -3.26568794   -1.36303401   -0.15250599
 C         -1.75062597   -1.06008196   -0.00558600
 C         -4.05653095   -0.16217500    0.37441599
 N         -1.61409998    0.35865000    0.36982101
 H         -5.12406588   -0.38814899    0.37795201
 H         -0.16692400    0.63225597    0.38032901
 H         -3.50874805   -2.26455498    0.41220200
 H         -1.29152799   -1.65280795    0.78512400
 C         -2.09895205    0.61782199    1.73627698
 C         -3.58181906    0.15890101    1.79573405
 H         -1.98972905    1.68516898    1.92613900
 H         -4.18634510    0.95500600    2.23338890
 H         -1.46928501    0.06299700    2.43051291
 H         -3.67212701   -0.72446698    2.43096900
