48
wb97x-d4 ma-def2-tzvp(-f) cpcm(dmso) E: -1056.425920243968, G: -1056.0489404500001
 H          1.49233902   -0.80338198   -2.91048193
 C          0.89198798    0.10687200   -2.90145898
 H          2.11361790   -3.19562197   -0.78061002
 H          1.10142195    0.70138699   -3.78790307
 H         -0.16805300   -0.15015499   -2.86846089
 O          1.21960902   -0.88003898   -0.32233399
 H          2.21326590   -2.88156796    0.97104901
 C          0.92730498    0.45186299   -0.54021001
 C          2.67683506   -2.67624688    0.00079000
 O          1.23998106    0.93748599   -1.78109205
 O          1.19998205    2.72065997    0.31279400
 C          2.62860894   -1.17941904   -0.26575100
 H          4.10278320   -3.96231294    0.39561200
 C          1.51136303    1.36130297    0.53465801
 O          4.04523611   -3.08666992   -0.00345700
 H          3.09624791   -0.95406097   -1.23063302
 H          1.48608696    2.95480800   -0.58072603
 H          2.91688895   -0.65270102    1.80453598
 H          1.06502998    1.08537996    1.49265099
 C          3.31401110   -0.34869000    0.82597798
 C          3.02316093    1.12914503    0.62147802
 H          4.87681484   -1.48692501    0.70924902
 H          3.48765206    1.45303798   -0.31927299
 O          4.72145414   -0.53159499    0.77925402
 O          3.56632495    1.85531199    1.71206605
 H          3.35008097    2.78650188    1.57596600
 H         -3.45210004   -1.44752598    2.02980709
 H         -1.23750806   -0.81132299    1.64072800
 C         -3.31446004   -1.17142701    0.98316300
 C         -1.80650902   -0.91735899    0.71760398
 H         -3.66755390   -1.99850798    0.36388299
 H         -1.35837698   -1.70018005    0.10756400
 H         -3.39971089    1.06541896    2.46884298
 H         -1.28268099    1.57492995    1.62648594
 C         -3.45367098    1.28213203    1.40009499
 C         -2.02646208    1.51221097    0.83372998
 C         -4.09175587    0.10694600    0.65200800
 N         -1.69994605    0.35406300   -0.01722400
 H         -5.13718081   -0.00256900    0.94453400
 H         -0.28629401    0.48307899   -0.39013699
 H         -4.04177380    2.19142389    1.26625299
 H         -1.96634102    2.40432191    0.21186700
 C         -2.49262404    0.34260401   -1.26041603
 C         -3.98966193    0.37409401   -0.85330898
 H         -2.23829198   -0.56816399   -1.80117404
 H         -4.52866983   -0.38655400   -1.42043900
 H         -2.20637703    1.21061301   -1.85384500
 H         -4.42208290    1.34740496   -1.09370995
