48
wb97x-d4 ma-def2-tzvp(-f) cpcm(dmso) E: -1056.423371479557, G: -1056.04890275
 H          1.17886996    3.81123209    0.00262700
 C          1.19405603    2.90084600    0.59960699
 H          3.36408806   -1.52186203   -3.17607498
 H          2.02086210    2.92492199    1.30747294
 H          0.25020099    2.79545903    1.13781297
 O          1.11396003   -0.26855600   -1.07883704
 H          1.77631795   -0.81426400   -3.52367592
 C          1.01468801    0.55460900    0.02474400
 C          2.36296391   -1.35616601   -2.77439404
 O          1.36378503    1.82753301   -0.34232101
 O          1.54447496    0.69128799    2.38437605
 C          2.47011209   -0.50077200   -1.52695096
 H          0.88422298   -2.50986195   -2.24224591
 C          1.71108103   -0.09483900    1.22454500
 O          1.79944801   -2.63768291   -2.51962090
 H          2.93106008    0.45503899   -1.79681802
 H          2.07994795    0.28769001    3.07965112
 H          2.86875391   -2.14763808   -0.19334900
 H          1.23473203   -1.07500803    1.35574603
 C          3.27289796   -1.15213203   -0.39919001
 C          3.17606306   -0.31650299    0.86924797
 H          4.81445980   -2.08675504   -1.16953301
 H          3.66349697    0.65286702    0.70513201
 O          4.64965487   -1.23473799   -0.75086099
 O          3.76646805   -0.97906500    1.97933304
 H          4.71159601   -1.06357205    1.80300403
 H         -4.09071493    0.98900199   -1.71656799
 H         -1.75535595    0.90657902   -1.71481597
 C         -3.70765209    1.12160695   -0.70352203
 C         -2.15867805    1.22172999   -0.75259501
 H         -4.12732220    2.04438901   -0.29821599
 H         -1.80520201    2.22707105   -0.52445799
 H         -3.55281806   -1.47818303   -1.37419903
 H         -1.24960899   -1.30724096   -0.99217802
 C         -3.35041904   -1.31517601   -0.31383201
 C         -1.82792306   -1.10499406   -0.09200700
 C         -4.09142590   -0.06884900    0.18223600
 N         -1.63194501    0.30733499    0.27069700
 H         -5.16945219   -0.23289800    0.14297500
 H         -0.16691700    0.53349203    0.28305700
 H         -3.67408395   -2.20113206    0.23482500
 H         -1.44202697   -1.70993805    0.72812301
 C         -2.15049911    0.61110801    1.61451602
 C         -3.65393496    0.22067800    1.62239504
 H         -2.00056696    1.67522097    1.79276299
 H         -4.23431683    1.04169202    2.04646301
 H         -1.57148504    0.03847300    2.33816695
 H         -3.80591989   -0.66203600    2.24674702
