48
wb97x-d4 ma-def2-tzvp(-f) cpcm(dmso) E: -1056.422104258442, G: -1056.04745492
 H          1.79252994    3.26537609   -0.68590999
 C          0.99695897    2.77798700   -1.24700499
 H          3.54216290   -2.77987909   -1.89429796
 H          0.04094100    2.93849206   -0.74556100
 H          0.95166302    3.17245197   -2.26087689
 O          1.13069904   -0.77689099   -0.78035301
 H          1.87219501   -2.56907797   -2.46371388
 C          0.96334702    0.52632999   -0.35734701
 C          2.51959109   -2.54404497   -1.58082700
 O          1.26530802    1.37319899   -1.39251602
 O          1.42147195    2.03479099    1.48048699
 C          2.50996304   -1.14311302   -1.01546800
 H          2.08246994   -4.34624290   -0.97715700
 C          1.65170705    0.72904801    0.99619502
 O          2.06558895   -3.46367002   -0.59114301
 H          2.93507409   -0.47297600   -1.76980698
 H          1.92261696    2.12543201    2.30110598
 H          2.91567612   -1.70842898    1.02715504
 H          1.20902896   -0.01231000    1.67366600
 C          3.29721498   -0.99732703    0.28905901
 C          3.13399196    0.41150200    0.84080201
 H          4.87957478   -2.14586210    0.17808300
 H          3.59058595    1.12932599    0.14755900
 O          4.68621492   -1.20897102    0.06343100
 O          3.71447110    0.54117399    2.13136697
 H          4.66558504    0.40429401    2.04084706
 H         -4.15660095    2.00758004    0.79850298
 H         -1.82743394    2.25792289    0.87792701
 C         -3.68415809    1.10711503    1.19604397
 C         -2.13952303    1.24524498    1.12917602
 H         -3.98826504    0.99505699    2.23796296
 H         -1.65666401    0.93872797    2.05650902
 H         -4.44549894    0.93395603   -1.50140405
 H         -2.23348498    1.68619096   -1.41504300
 C         -3.79400992    0.15315600   -1.10581100
 C         -2.31613708    0.61603498   -1.22666204
 C         -4.09958696   -0.11709900    0.37253800
 N         -1.67211604    0.34064400    0.06616200
 H         -5.16394711   -0.31700701    0.50529200
 H         -0.22053000    0.59726101   -0.13061300
 H         -3.95087600   -0.75242198   -1.69532502
 H         -1.77451897    0.06951600   -1.99895895
 C         -1.78858495   -1.07428205    0.45188800
 C         -3.27337003   -1.32376599    0.83088303
 H         -1.11362898   -1.25455797    1.28824997
 H         -3.36583591   -1.45703495    1.91063702
 H         -1.47446704   -1.67508101   -0.40005699
 H         -3.61740303   -2.23776889    0.34432900
