48
wb97x-d4 ma-def2-tzvp(-f) cpcm(dmso) E: -1056.422634739564, G: -1056.0471670400002
 H          0.09810900    2.11202502   -2.09021807
 C          1.02741206    1.65696096   -2.43934894
 H          1.86678803   -3.09997797    1.21318698
 H          0.95077598    1.43329895   -3.50224495
 H          1.86092305    2.33258200   -2.25395894
 O          1.11117995   -1.04881299   -0.08228300
 H          3.41215611   -3.39483404    0.39144400
 C          0.98860699    0.27590001   -0.45294699
 C          2.39249992   -3.02317309    0.25837699
 O          1.24445796    0.39018399   -1.79470801
 O          1.69361103    2.54547095    0.25135100
 C          2.45634604   -1.56492698   -0.15386100
 H          2.20857501   -3.91954088   -1.46676600
 C          1.76979899    1.16471195    0.53235602
 O          1.67232001   -3.82552290   -0.67063999
 H          2.82024503   -1.48247898   -1.18354905
 H          0.91617602    2.91143203    0.68852103
 H          3.05048609   -0.92464399    1.81246102
 H          1.37063801    0.94738603    1.52830899
 C          3.35830307   -0.75183302    0.77214497
 C          3.23406291    0.73719400    0.48186600
 H          5.26600122   -0.63714498    1.11339295
 H          3.63350010    0.94450003   -0.51886803
 O          4.69301081   -1.19553602    0.57288599
 O          4.00097990    1.41367495    1.46638095
 H          4.00114822    2.35399008    1.24968505
 H         -3.47042799    0.03152900    2.48840499
 H         -1.17442703    0.05409500    2.01765895
 C         -3.25477290   -0.55672401    1.59425104
 C         -1.74629998   -0.45089799    1.23953199
 H         -3.50085402   -1.59860003    1.80533004
 H         -1.30180895   -1.42425001    1.03959095
 H         -4.18215799    2.02608609    1.09067297
 H         -1.84657896    2.12850404    1.05755401
 C         -3.79079509    1.46424603    0.24105200
 C         -2.25354290    1.67621303    0.15346900
 C         -4.07053614   -0.03381000    0.40671200
 N         -1.64279604    0.34569901    0.00748400
 H         -5.13505316   -0.19914000    0.58012801
 H         -0.17626800    0.50962800   -0.25788501
 H         -4.26937723    1.84047401   -0.66533601
 H         -1.97282898    2.27868199   -0.70912498
 C         -2.15016890   -0.37722901   -1.16593897
 C         -3.62287903   -0.76757002   -0.86294103
 H         -1.51836300   -1.25086999   -1.32569897
 H         -3.70097303   -1.84731698   -0.72178501
 H         -2.06805110    0.28938499   -2.02410412
 H         -4.24914408   -0.48901600   -1.71199405
