48
wb97x-d4 ma-def2-tzvp(-f) cpcm(dmso) E: -1056.422194724164, G: -1056.04682688
 H          0.24483700    2.82474899    0.86559403
 C          1.17677605    2.84473300    0.29764599
 H          1.60776997   -1.39355397   -3.37391710
 H          1.17511106    3.69367003   -0.38393900
 H          2.02281499    2.90761709    0.98013800
 O          1.04074705   -0.48524001   -1.04358196
 H          1.81642401   -2.68556905   -2.17243195
 C          0.94306600    0.45499200   -0.03550700
 C          2.26100206   -1.77757204   -2.58569288
 O          1.28650796    1.68184996   -0.54136699
 O          1.46860099    0.82204199    2.30337906
 C          2.39242005   -0.73608601   -1.48001802
 H          3.82233191   -1.45643306   -3.72548199
 C          1.65253901   -0.06193400    1.21938801
 O          3.53724408   -2.14430499   -3.11131310
 H          2.82567811    0.18657100   -1.88034701
 H          2.02169991    0.49870700    3.02658606
 H          2.86567307   -2.21539092    0.01105600
 H          1.19881201   -1.03619695    1.44106495
 C          3.23837090   -1.23051703   -0.30216300
 C          3.12235999   -0.27766401    0.87946099
 H          4.66556978   -1.80355597   -1.48076296
 H          3.58187509    0.68279701    0.61723799
 O          4.61374283   -1.30684900   -0.64974201
 O          3.73280692   -0.80959499    2.04801989
 H          4.68894386   -0.79546303    1.92206895
 H         -4.23962593    0.89601398   -1.62798405
 H         -1.91158199    0.69887698   -1.73073494
 C         -3.79772902    1.10232794   -0.65186399
 C         -2.25046301    1.12767005   -0.78797400
 H         -4.15756512    2.07627010   -0.31426001
 H         -1.84644103    2.13418388   -0.68227500
 H         -3.76799011   -1.55168903   -1.08104897
 H         -1.44270504   -1.44578695   -0.81513101
 C         -3.50964808   -1.30061197   -0.05036500
 C         -1.97102296   -1.13379300    0.08455200
 C         -4.17972612    0.01583300    0.35982099
 N         -1.70795298    0.29739401    0.29698801
 H         -5.26359177   -0.10730900    0.38613799
 H         -0.23449200    0.46385601    0.23113801
 H         -3.83898902   -2.11864209    0.59228098
 H         -1.57058299   -1.67161298    0.94347000
 C         -2.14779305    0.75366497    1.62523997
 C         -3.65988398    0.41976199    1.74372995
 H         -1.95696497    1.82430196    1.68548405
 H         -4.19128990    1.29644799    2.11753798
 H         -1.55063796    0.23752300    2.37612200
 H         -3.80704498   -0.39648700    2.45376110
