48
wb97x-d4 ma-def2-tzvp(-f) cpcm(dmso) E: -1056.421599211511, G: -1056.0466335200001
 H          1.90636098    3.18037200   -0.74803001
 C          1.05985796    2.72287393   -1.25734901
 H          1.56657302   -2.79720211   -2.22522807
 H          0.13825400    2.94835901   -0.71790099
 H          0.98839200    3.09002805   -2.27982807
 O          1.03824997   -0.81937200   -0.68763000
 H          1.75962198   -3.27688694   -0.51907098
 C          0.94409102    0.50329202   -0.30136499
 C          2.21897507   -2.73025703   -1.34910500
 O          1.24637401    1.30136096   -1.37179196
 O          1.52666605    2.03521395    1.48344004
 C          2.38066602   -1.27154398   -0.95196301
 H          3.45665693   -4.21169281   -1.69290102
 C          1.68738902    0.71167898    1.02173698
 O          3.51706409   -3.25124407   -1.64129198
 H          2.80604601   -0.69732898   -1.78143704
 H          2.10497308    2.13763094    2.25060391
 H          2.89239502   -1.76740599    1.07999301
 H          1.24496996    0.00226000    1.73263502
 C          3.25172591   -1.08781397    0.29505801
 C          3.15040803    0.34029499    0.81155097
 H          4.66158390   -2.18812799   -0.44984400
 H          3.59758306    1.02242804    0.07860800
 O          4.62106085   -1.33505595    0.00966300
 O          3.78951406    0.49037901    2.07265496
 H          4.74256611    0.43459001    1.93506002
 H         -4.30192280    1.96861506    1.24066496
 H         -2.12002802    2.39590001    0.51725501
 C         -3.68485093    1.07436299    1.34198201
 C         -2.20819592    1.44018102    1.03249896
 H         -3.77354693    0.71420902    2.36901402
 H         -1.58939898    1.45490301    1.92915797
 H         -4.23218822    1.42850399   -1.25633502
 H         -1.92367303    1.43516695   -1.66676605
 C         -3.80268693    0.44255799   -1.06713498
 C         -2.25877309    0.49866101   -1.22159600
 C         -4.13243723   -0.01408300    0.35891700
 N         -1.68603098    0.39994001    0.12995601
 H         -5.20394182   -0.19422001    0.45810500
 H         -0.23564400    0.62696600   -0.04372700
 H         -4.21049500   -0.25279301   -1.80250502
 H         -1.87157404   -0.33746400   -1.80351102
 C         -1.83711398   -0.94980901    0.69748998
 C         -3.34973598   -1.29634202    0.66007400
 H         -1.44605803   -0.92192900    1.71425700
 H         -3.64446402   -1.71403694    1.62410700
 H         -1.24224806   -1.63916898    0.10092700
 H         -3.54300809   -2.04695511   -0.10910100
