48
wb97x-d4 ma-def2-tzvp(-f) cpcm(dmso) E: -1056.427823239289, G: -1056.05337159
 H          1.19346595    1.83642399   -3.22412109
 C          1.04140306    0.94461000   -2.61983705
 H          2.31675506   -3.25902200   -0.26873600
 H          0.00123100    0.61903501   -2.69363689
 H          1.69960403    0.14472000   -2.96097589
 O          1.30729198   -0.89851302   -0.58613002
 H          3.89736795   -2.92990708   -1.01166403
 C          1.01398003    0.42457700   -0.30089301
 C          2.84428310   -2.64846802   -1.01122296
 O          1.35751402    1.32685196   -1.27002597
 O          1.22809899    2.19419003    1.29558206
 C          2.72492599   -1.18706799   -0.63141000
 H          1.40206695   -2.69852090   -2.31938195
 C          1.55537105    0.83928001    1.06165695
 O          2.34651589   -2.89592409   -2.32065701
 H          3.19651604   -0.56726801   -1.40129399
 H          1.26973200    2.35197091    2.24612999
 H          2.89157009   -1.51849997    1.48728502
 H          1.08541703    0.19057800    1.80840802
 C          3.34365702   -0.86920398    0.72486198
 C          3.06307912    0.58238602    1.09029806
 H          5.13652992   -0.79084599    1.45309305
 H          3.55718899    1.23875105    0.36620799
 O          4.73898315   -1.11029398    0.63266301
 O          3.58663702    0.80551201    2.39419007
 H          3.84819293    1.73013699    2.46885109
 H         -3.58003092    1.25572395    2.29052711
 H         -1.27470803    0.99742001    2.00848699
 C         -3.35665298    0.30587199    1.80064094
 C         -1.83358395    0.20250700    1.51641297
 H         -3.65004897   -0.50151199    2.47339106
 H         -1.42444503   -0.76468402    1.80727196
 H         -4.20939493    2.34095597    0.06398600
 H         -1.87311006    2.40586996    0.19230101
 C         -3.77795005    1.44121897   -0.37751499
 C         -2.23470402    1.59777606   -0.44268000
 C         -4.10717678    0.20585600    0.46850100
 N         -1.65209401    0.34361801    0.06235600
 H         -5.18205214    0.14672200    0.64605600
 H         -0.19448499    0.42232201   -0.18469600
 H         -4.18381882    1.32767999   -1.38477194
 H         -1.88344800    1.75487006   -1.46168995
 C         -2.13835597   -0.83597398   -0.67312300
 C         -3.62294292   -1.04574704   -0.27213499
 H         -1.51233006   -1.68585396   -0.40341601
 H         -3.71669793   -1.92366004    0.37020701
 H         -2.02518106   -0.62789702   -1.73648906
 H         -4.21415377   -1.21857405   -1.17286098
