48
wb97x-d4 ma-def2-tzvp(-f) cpcm(dmso) E: -1056.421955904501, G: -1056.04659009
 H          0.14816301    2.95761395   -0.06201300
 C          1.07810104    2.85969901   -0.62537098
 H          1.51207101   -2.21721792   -2.95218706
 H          1.04250801    3.49160194   -1.51102197
 H          1.92140698    3.13976502    0.00455000
 O          1.03533995   -0.70988899   -0.99989402
 H          1.96018302   -3.16135001   -1.51657498
 C          0.93313098    0.47008401   -0.28522101
 C          2.27370191   -2.34652591   -2.18106294
 O          1.23450696    1.51751101   -1.11716604
 O          1.51527095    1.50137198    1.83843696
 C          2.38188696   -1.05482399   -1.37885296
 H          4.19638395   -2.62004995   -2.18221211
 C          1.67861497    0.34030199    1.04972899
 O          3.49047804   -2.66365504   -2.84313607
 H          2.80015802   -0.26606101   -2.01216102
 H          1.57098305    1.24249697    2.76518106
 H          2.84086299   -2.05808902    0.46201199
 H          1.23847306   -0.52678102    1.55434704
 C          3.22827196   -1.21000695   -0.11799200
 C          3.14807701    0.03827700    0.74672902
 H          5.09515810   -1.61767602    0.26323199
 H          3.59416294    0.88518000    0.21366499
 O          4.56545305   -1.47197294   -0.53069401
 O          3.87054491   -0.22719499    1.94162905
 H          4.14721012    0.61197799    2.32725406
 H         -4.10165596   -0.11063600   -1.68988800
 H         -1.87966204    0.62169498   -1.86208403
 C         -3.86160111    0.58671802   -0.88482702
 C         -2.35744596    0.97248101   -0.94726402
 H         -4.46614504    1.48487496   -1.02069604
 H         -2.20255899    2.04622698   -0.84578800
 H         -3.81072092   -2.11802697   -0.14127600
 H         -1.65564501   -1.50161505   -0.80719602
 C         -3.38966203   -1.39203095    0.55605298
 C         -1.90233302   -1.13797498    0.18896800
 C         -4.14230824   -0.05901600    0.47732699
 N         -1.69970500    0.31840199    0.19320700
 H         -5.21372414   -0.22417200    0.60112298
 H         -0.23283300    0.52763200    0.00294900
 H         -3.45992494   -1.80726504    1.56345499
 H         -1.21786594   -1.57931697    0.91318399
 C         -2.07050204    0.92878199    1.48039997
 C         -3.61920810    0.86763799    1.58032405
 H         -1.69727600    1.95177698    1.49332094
 H         -4.03918791    1.86864400    1.46293700
 H         -1.58155799    0.35657299    2.26808190
 H         -3.89957595    0.49402800    2.56648302
