48
wb97x-d4 ma-def2-tzvp(-f) cpcm(dmso) E: -1056.421914846629, G: -1056.0462114900001
 H          0.26954800    2.87977600    0.98046798
 C          1.24031901    2.95361710    0.48652399
 H          3.46300101   -1.47840703   -3.13959002
 H          1.26896405    3.84476089   -0.13860400
 H          2.03076601    2.98876405    1.23442602
 O          1.11944103   -0.25179601   -1.12059796
 H          1.84154499   -0.85036600   -3.50558090
 C          1.01254904    0.59943199   -0.03910100
 C          2.44011211   -1.38370097   -2.75963712
 O          1.44196105    1.84748399   -0.40996099
 O          1.46735001    0.78359401    2.33335090
 C          2.48220897   -0.55744100   -1.49524200
 H          1.86510801   -3.16669512   -3.30176902
 C          1.62231398   -0.05227200    1.20687103
 O          1.88069606   -2.66440296   -2.47964191
 H          3.00741601    0.37594301   -1.72338796
 H          1.93390799    0.36101800    3.06596088
 H          2.68086910   -2.20666504   -0.11804500
 H          1.08052504   -0.99543399    1.35440600
 C          3.17605805   -1.25323999   -0.32214800
 C          3.08283997   -0.37995800    0.92047000
 H          4.66127014   -2.30488110   -1.04463601
 H          3.64022899    0.55105799    0.75478101
 O          4.55671310   -1.45734704   -0.59786201
 O          3.57886004   -1.05054903    2.07074308
 H          4.51821184   -1.22082603    1.92797899
 H         -3.97851896    0.65481597   -1.74373400
 H         -1.76596296    1.42564595   -1.57273400
 C         -3.77470708    1.03260696   -0.73976398
 C         -2.27531505    1.41426504   -0.60912400
 H         -4.38392019    1.92401695   -0.58187401
 H         -2.13759589    2.37600207   -0.11578700
 H         -3.74816799   -1.76467395   -0.97944200
 H         -1.58541906   -0.95313400   -1.35144496
 C         -3.34243989   -1.32576096   -0.06658000
 C         -1.84894395   -0.96896702   -0.29510301
 C         -4.09382820   -0.04335300    0.30550900
 N         -1.64177895    0.38847101    0.23462901
 H         -5.16823196   -0.23057400    0.33706999
 H         -0.17929401    0.64233398    0.16106801
 H         -3.43203902   -2.06170702    0.73508698
 H         -1.17982900   -1.64756298    0.23278500
 C         -2.04827499    0.50127703    1.64527500
 C         -3.59941912    0.43546399    1.67548096
 H         -1.66868198    1.44392002    2.03680205
 H         -4.00971699    1.42193401    1.90133703
 H         -1.58855605   -0.32483000    2.18701911
 H         -3.91213989   -0.25165901    2.46334696
