48
wb97x-d4 ma-def2-tzvp(-f) cpcm(dmso) E: -1056.42296864628, G: -1056.0461674800001
 H          1.67027605    2.23826694   -2.52893806
 C          0.89333099    1.48963404   -2.67439795
 H          3.63619900   -3.28592110    0.30897701
 H         -0.06637100    1.88430595   -2.33616590
 H          0.82743198    1.20977497   -3.72448206
 O          1.19225204   -1.10315502   -0.21220499
 H          2.06175089   -3.54951596   -0.46611199
 C          0.96071601    0.19127600   -0.63136500
 C          2.60168099   -2.94323301    0.26896200
 O          1.21959496    0.27679700   -1.97363198
 O          1.33430696    2.51098108   -0.03849300
 C          2.58362508   -1.49561405   -0.18519101
 H          1.12270904   -2.86709905    1.53478205
 C          1.63370597    1.18073404    0.32471099
 O          2.05338907   -3.11934996    1.56952500
 H          2.99061990   -1.44342804   -1.20226002
 H          1.86486804    3.08392310    0.53042799
 H          3.03906107   -0.69834298    1.76242101
 H          1.22891104    0.95779401    1.32070196
 C          3.37022400   -0.55657798    0.73110002
 C          3.13087797    0.89781499    0.33974200
 H          5.08963299   -0.77092701   -0.18194300
 H          3.54574800    1.08180201   -0.66055697
 O          4.75547981   -0.87226802    0.71924502
 O          3.70058203    1.79894805    1.27875805
 H          4.66055393    1.75458801    1.19538701
 H         -3.34092212   -0.67733598    2.49922609
 H         -1.12892699   -0.26330200    1.88326705
 C         -3.19212508   -0.92630601    1.44726098
 C         -1.69843996   -0.71640998    1.07228398
 H         -3.46446991   -1.97342098    1.30352902
 H         -1.21673298   -1.64461696    0.76942599
 H         -3.69831395    1.72488201    1.78398001
 H         -1.48155296    1.93233001    1.08213902
 C         -3.60470510    1.42866695    0.73770601
 C         -2.12334299    1.55703294    0.28590599
 C         -4.05305099   -0.02537000    0.55628097
 N         -1.65707004    0.20811599   -0.07026500
 H         -5.10466719   -0.12724601    0.82971197
 H         -0.22774200    0.33204100   -0.44325700
 H         -4.22539091    2.09691191    0.13854700
 H         -2.01168108    2.18922806   -0.59393197
 C         -2.34085703   -0.33202100   -1.25330901
 C         -3.85321498   -0.43482101   -0.90648502
 H         -1.90155399   -1.30445695   -1.47462797
 H         -4.19292498   -1.45968604   -1.06457102
 H         -2.15658307    0.34557700   -2.08609605
 H         -4.42689705    0.21899700   -1.56571400
