48
wb97x-d4 ma-def2-tzvp(-f) cpcm(dmso) E: -1056.421891008413, G: -1056.0460252100002
 H          0.15306599    2.88451195   -0.68099397
 C          1.08194005    2.64964199   -1.20334399
 H          1.85968697   -3.30645204   -0.43446699
 H          1.02792096    3.00413990   -2.23137689
 H          1.92130804    3.11238694   -0.68656099
 O          1.10704100   -0.88293600   -0.56292200
 H          3.43764496   -3.15318489   -1.23227704
 C          0.96699899    0.44413701   -0.21229701
 C          2.41692209   -2.75983191   -1.19908500
 O          1.26699197    1.22686505   -1.29714894
 O          1.46763504    2.02317500    1.56176996
 C          2.46880794   -1.29342306   -0.81789702
 H          2.31188297   -2.66730499   -3.14721203
 C          1.68472695    0.70165002    1.11659002
 O          1.74675298   -2.98687911   -2.43377900
 H          2.87212896   -0.70365798   -1.64808500
 H          1.99861395    2.14391494    2.35947394
 H          3.00036597   -1.73013604    1.23117995
 H          1.26285100   -0.01582500    1.83138597
 C          3.32207108   -1.05240798    0.43207201
 C          3.16136789    0.38234001    0.91902399
 H          4.95254707   -2.14381909    0.37251100
 H          3.58320689    1.06382203    0.16952699
 O          4.70338106   -1.24236906    0.14263999
 O          3.79803109    0.58053398    2.17245507
 H          4.74459505    0.44021901    2.04549003
 H         -4.32880783    1.91709602    1.09976304
 H         -2.09485507    2.32503390    0.54802001
 C         -3.73440695    1.01127601    1.23016405
 C         -2.23414493    1.35293496    1.01957595
 H         -3.89398193    0.64361399    2.24579310
 H         -1.66848397    1.31907201    1.95008504
 H         -4.16140985    1.39917898   -1.39409995
 H         -1.83665204    1.43585002   -1.65485406
 C         -3.73702312    0.41388199   -1.19120502
 C         -2.18662906    0.48137200   -1.26324999
 C         -4.14004183   -0.05897800    0.20996100
 N         -1.68328202    0.33444801    0.11065900
 H         -5.21683598   -0.23002499    0.25294599
 H         -0.21614499    0.54811400    0.01871300
 H         -4.10132217   -0.27706701   -1.95308805
 H         -1.76452696   -0.32983401   -1.85603905
 C         -1.87087905   -1.03006303    0.62750399
 C         -3.38644290   -1.35444605    0.52838898
 H         -1.51303101   -1.04223800    1.65672600
 H         -3.72468090   -1.77706003    1.47592795
 H         -1.26531899   -1.70673597    0.02706700
 H         -3.55957699   -2.09453297   -0.25543001
