48
wb97x-d4 ma-def2-tzvp(-f) cpcm(dmso) E: -1056.422054899667, G: -1056.0458210600002
 H          0.77027798    2.34396505   -3.24411392
 C          0.90451902    1.39727104   -2.72471309
 H          4.19698000   -2.41942501   -1.24926305
 H          0.01733800    0.77384400   -2.84941602
 H          1.77749705    0.87311000   -3.11569691
 O          1.50141299   -0.51468301   -0.93727797
 H          3.01461101   -1.97370696   -2.49735403
 C          1.07801902    0.69739503   -0.44008800
 C          3.15839195   -2.13054204   -1.42304802
 O          1.10232997    1.73741901   -1.34333301
 O          2.94958997    1.88332200    0.59502500
 C          2.88826990   -0.83294499   -0.68690997
 H          1.42519403   -2.97562289   -1.15263999
 C          1.76161206    1.15150297    0.86011600
 O          2.34309602   -3.19905806   -0.95631200
 H          3.51229095   -0.04628500   -1.12248099
 H          2.75160289    2.54185200   -0.08337100
 H          3.08382010   -1.95694602    1.15121901
 H          1.05651402    1.75670004    1.43720603
 C          3.17743492   -0.92067599    0.82111299
 C          2.18807602   -0.07935200    1.64649701
 H          4.61116886    0.38847899    0.84898698
 H          2.69649911    0.24453799    2.56001806
 O          4.52778816   -0.54942602    1.07071805
 O          1.00482202   -0.80358100    1.95344102
 H          1.23204696   -1.51341498    2.56529188
 H         -3.70088196    1.31712699    2.36705494
 H         -1.61739194    1.91836500    1.49222195
 C         -3.21613503    0.45468399    1.90664995
 C         -1.76365197    0.83856499    1.51467705
 H         -3.20342994   -0.35851300    2.63542700
 H         -1.02687800    0.38233000    2.17172003
 H         -4.05324316    2.07852793   -0.03349300
 H         -1.85897100    2.12116694   -0.88074797
 C         -3.76813889    1.10219598   -0.43060300
 C         -2.27436709    1.11377800   -0.85384601
 C         -3.95880294    0.02023400    0.63908702
 N         -1.53612697    0.33399999    0.15099700
 H         -5.02026176   -0.11868300    0.84999597
 H         -0.08140800    0.50469100   -0.16439800
 H         -4.38355923    0.89914399   -1.30848300
 H         -2.12517500    0.63228297   -1.81903195
 C         -1.80362499   -1.10697699    0.03694300
 C         -3.34313011   -1.29103005    0.13543400
 H         -1.27276194   -1.60342097    0.84714699
 H         -3.56102991   -2.11075091    0.82192701
 H         -1.41001201   -1.45268297   -0.91860598
 H         -3.75222111   -1.54876697   -0.84368700
