48
wb97x-d4 ma-def2-tzvp(-f) cpcm(dmso) E: -1056.422182890488, G: -1056.0457513400002
 H          1.11826205    3.64843297   -0.57073802
 C          1.15482295    2.83883905    0.15624300
 H          1.58696306   -1.57358897   -3.28156900
 H          2.02969694    2.94329309    0.79611099
 H          0.24988900    2.84794593    0.76562601
 O          1.03760600   -0.56446898   -0.99279898
 H          1.86002696   -2.79937291   -2.02492309
 C          0.93308097    0.42978400   -0.03797500
 C          2.26766109   -1.89927399   -2.49039412
 O          1.23635995    1.63227797   -0.62149799
 O          1.49095702    0.94342297    2.26620793
 C          2.38836908   -0.80092299   -1.43979096
 H          3.79062700   -1.59167099   -3.68505597
 C          1.67781794    0.00367700    1.23054600
 O          3.54387212   -2.25208712   -3.02589703
 H          2.78899908    0.11170000   -1.89341199
 H          2.06757307    0.67585802    2.99392104
 H          2.92769408   -2.18519902    0.11956200
 H          1.25279295   -0.96689498    1.51591694
 C          3.26783991   -1.20941806   -0.25343999
 C          3.14693809   -0.19554500    0.87628901
 H          4.68574905   -1.79804099   -1.43590295
 H          3.57840490    0.75882500    0.55230999
 O          4.63779688   -1.26855397   -0.62507302
 O          3.79027390   -0.64432102    2.06228495
 H          4.74245024   -0.54620600    1.94597006
 H         -4.20226812    0.75682497   -1.70314395
 H         -1.87300396    0.56191200   -1.74471402
 C         -3.78185892    1.03300905   -0.73479998
 C         -2.23168111    1.04492497   -0.83608401
 H         -4.14517403    2.02988911   -0.47760499
 H         -1.82545400    2.05435491   -0.77940798
 H         -3.78211689   -1.64966404   -0.97281998
 H         -1.45918405   -1.52971995   -0.69855398
 C         -3.53117204   -1.32425594    0.03869800
 C         -1.99206400   -1.16181099    0.17698400
 C         -4.19299698    0.02423500    0.34322199
 N         -1.71779001    0.27709100    0.30700901
 H         -5.27849913   -0.08594500    0.35797599
 H         -0.23985299    0.42563501    0.24900800
 H         -3.87463403   -2.08891296    0.73729801
 H         -1.60309100   -1.65232503    1.06890297
 C         -2.17367196    0.81755000    1.59796703
 C         -3.69436598    0.51868302    1.70543504
 H         -1.96350002    1.88630903    1.60144496
 H         -4.21725702    1.42941594    2.00218511
 H         -1.60075402    0.33448401    2.38850999
 H         -3.87213492   -0.24017200    2.46996903
