48
wb97x-d4 ma-def2-tzvp(-f) cpcm(dmso) E: -1056.421249240254, G: -1056.04522533
 H          0.95412999    1.72375906   -3.33938408
 C          1.00399399    1.82275403   -2.25647902
 H          1.56095302   -3.53886795   -0.76379102
 H          1.85156703    2.44344306   -1.97040606
 H          0.07895900    2.26477408   -1.88165903
 O          1.03847301   -1.13674998   -0.21938901
 H          2.05219293   -3.31036592    0.92714500
 C          0.90166700    0.22127700   -0.43910399
 C          2.33121610   -3.11644101   -0.11609400
 O          1.16362596    0.48282999   -1.75798297
 O          1.43338895    2.38357997    0.51494098
 C          2.39507890   -1.61184001   -0.34875000
 H          4.26020718   -3.29739690    0.02594900
 C          1.65852797    0.99689603    0.64301401
 O          3.55463099   -3.75866199   -0.44881299
 H          2.75404191   -1.41546798   -1.36499798
 H          1.96990001    2.82166910    1.18803704
 H          2.99145699   -1.18984199    1.67589700
 H          1.26760399    0.63377100    1.60189402
 C          3.28524208   -0.88785601    0.66634798
 C          3.13481998    0.62608099    0.55216002
 H          4.97344685   -0.98355502   -0.33266801
 H          3.53265691    0.96381599   -0.41404000
 O          4.64819622   -1.28540897    0.52727902
 O          3.78966904    1.30207002    1.61599398
 H          4.74189615    1.19581902    1.50344098
 H         -3.71731496   -0.71483600    2.32704401
 H         -1.47454906   -0.14643300    2.01521897
 C         -3.43741393   -0.84349501    1.28028595
 C         -1.91148806   -0.59914100    1.12566805
 H         -3.68213391   -1.86581004    0.98557001
 H         -1.37098801   -1.51282096    0.88309902
 H         -3.83010602    1.76327205    1.80571795
 H         -1.59703600    2.07775688    1.16954005
 C         -3.70484591    1.57317305    0.73802698
 C         -2.20623112    1.69887197    0.34978399
 C         -4.18408394    0.15827200    0.39317700
 N         -1.73083401    0.34705701    0.01364600
 H         -5.25963020    0.07605500    0.55767298
 H         -0.27266201    0.42542699   -0.23051400
 H         -4.28027391    2.32071400    0.18966500
 H         -2.06026697    2.32696700   -0.52799797
 C         -2.30888200   -0.15380900   -1.24174500
 C         -3.85350990   -0.13751499   -1.07389796
 H         -1.92220199   -1.15973604   -1.40341198
 H         -4.25713921   -1.10628295   -1.37248397
 H         -1.97743297    0.49594301   -2.05132008
 H         -4.28851891    0.62628299   -1.72128797
