48
wb97x-d4 ma-def2-tzvp(-f) cpcm(dmso) E: -1056.420773071249, G: -1056.04507441
 H          1.51994598    0.53188998   -3.67053103
 C          0.57223397    0.85745102   -3.24038911
 H          3.61414695   -2.95144010   -0.17694500
 H          0.10534900    1.60271204   -3.88157010
 H         -0.09041700   -0.00174400   -3.12644601
 O          1.82678103   -0.40887100   -1.32502699
 H          3.10385203   -2.57467604   -1.83419001
 C          1.17719305    0.73684299   -0.91403502
 C          2.84390306   -2.46592307   -0.77557999
 O          0.79354900    1.51728797   -1.98360801
 O          3.14017510    2.08631802   -0.58521098
 C          2.80709291   -0.98656303   -0.43702301
 H          0.93236202   -2.72224498   -1.04542696
 C          1.97384000    1.60232902    0.06241200
 O          1.61301303   -3.11824989   -0.48738500
 H          3.78353405   -0.54283202   -0.65978599
 H          2.86229396    2.54345894   -1.38990104
 H          1.42200804   -1.09930396    1.18373203
 H          1.33021700    2.42632198    0.38683599
 C          2.42899704   -0.70654202    1.01136804
 C          2.42211199    0.79310799    1.28756297
 H          3.09341097   -1.24438405    2.75742888
 H          3.44526601    1.10543096    1.51841295
 O          3.35881901   -1.38607800    1.84055603
 O          1.57111299    0.99500000    2.40903997
 H          1.72506905    1.88188004    2.75618601
 H         -2.82667089    0.00661800    2.82717800
 H         -0.60899699   -0.12756900    2.07884097
 C         -2.75849199   -0.61539698    1.93243301
 C         -1.30319905   -0.59465700    1.38243997
 H         -3.01923704   -1.63864005    2.20736003
 H         -0.95095003   -1.59344101    1.12524903
 H         -3.66416001    1.99570894    1.47744095
 H         -1.34085906    1.97728896    1.22241902
 C         -3.38389397    1.39858305    0.60834098
 C         -1.85460699    1.54995096    0.36185899
 C         -3.69476104   -0.08467400    0.84218001
 N         -1.32362795    0.20020100    0.14982800
 H         -4.73565102   -0.20716301    1.14591801
 H          0.18084601    0.41862699   -0.35046601
 H         -3.93878698    1.77114904   -0.25495201
 H         -1.63994205    2.14664793   -0.52449203
 C         -1.99846995   -0.49380800   -0.95130098
 C         -3.42462707   -0.86015999   -0.45210201
 H         -1.41387403   -1.37602198   -1.21302402
 H         -3.49303293   -1.93459404   -0.27066299
 H         -2.03432703    0.18762200   -1.79990399
 H         -4.14855003   -0.59745401   -1.22505903
