48
wb97x-d4 ma-def2-tzvp(-f) cpcm(dmso) E: -1056.421164376755, G: -1056.0448200600001
 H          1.88996100    3.23763990   -0.88221502
 C          0.98591101    3.05796790   -0.29961801
 H          2.30664992   -2.31355405   -2.49549389
 H          0.72182000    3.94743705    0.26939201
 H          0.16762801    2.78799295   -0.97158498
 O          1.89180195    0.67867899   -1.02511406
 H          1.13213003   -1.02734303   -2.87244701
 C          1.21598005    0.73143899    0.18064900
 C          1.68520999   -1.51978302   -2.06562209
 O          1.21109605    2.02190709    0.66753399
 O          1.47521198    0.26648301    2.56552100
 C          2.60663104   -0.51050597   -1.41183698
 H          0.29103801   -2.76492095   -1.49452698
 C          1.77250695   -0.20332099    1.26808596
 O          0.78980702   -2.04566312   -1.09064806
 H          3.29109001   -0.15315901   -2.18252707
 H          1.62905002    1.22140300    2.57975507
 H          3.16096592   -2.13996196   -0.10086300
 H          1.30752802   -1.18571603    1.17802298
 C          3.46456599   -1.10287201   -0.27960801
 C          3.27203488   -0.34749001    1.02289605
 H          5.34888792   -1.53436697   -0.04833800
 H          3.73421788    0.64532101    0.94975603
 O          4.82146215   -1.07248700   -0.71205002
 O          3.89370298   -1.10582399    2.04793000
 H          3.72160411   -0.65954500    2.88682890
 H         -3.83518791   -0.77628201   -1.92799306
 H         -1.50519204   -0.85085899   -1.71836603
 C         -3.48378706    0.04553000   -1.30199003
 C         -1.92797506    0.07273900   -1.32761800
 H         -3.87963295    0.97820902   -1.70873296
 H         -1.54098296    0.91896200   -1.89469397
 H         -3.35632992   -2.22638893    0.11128500
 H         -1.07493305   -1.79593801    0.44702399
 C         -3.21679902   -1.34871602    0.74564600
 C         -1.70302796   -1.00671697    0.85318398
 C         -3.94322491   -0.13880301    0.14893100
 N         -1.48579299    0.21066600    0.06379600
 H         -5.02311182   -0.29169601    0.18497300
 H          0.08872100    0.43483099    0.00163800
 H         -3.59996104   -1.58182502    1.74045002
 H         -1.40443695   -0.79170400    1.87873304
 C         -2.04712892    1.39692903    0.71716201
 C         -3.55777693    1.10833204    0.95254201
 H         -1.89898801    2.24727893    0.05384500
 H         -4.13781691    1.97468996    0.63068497
 H         -1.50938201    1.56432498    1.64985299
 H         -3.74573898    0.94668001    2.01577401
