48
wb97x-d4 ma-def2-tzvp(-f) cpcm(dmso) E: -1056.421461538237, G: -1056.0448167700001
 H          0.23059800    2.64139509   -3.26728511
 C          0.69908297    1.75593603   -2.84180307
 H          3.88341689   -2.61002707   -0.82866400
 H          0.05514100    0.88737702   -2.99037290
 H          1.66603100    1.57834804   -3.31346107
 O          1.91036999    0.01425200   -1.29427099
 H          3.37776589   -1.80538905   -2.32365608
 C          1.19334996    0.98410201   -0.62295699
 C          3.07888889   -2.04120708   -1.29674995
 O          0.86947399    2.04261303   -1.44393694
 O          3.05436301    2.22373009    0.26578301
 C          2.87985492   -0.74361700   -0.53759998
 H          1.21179402   -2.39019895   -1.73228896
 C          1.87193096    1.53115404    0.63485599
 O          1.91942298   -2.86595511   -1.28004706
 H          3.82512307   -0.19040100   -0.52371699
 H          2.80917692    2.89305496   -0.38672099
 H          1.36966598   -1.38930404    0.83367997
 H          1.16685402    2.19922400    1.13780200
 C          2.36407304   -0.93890703    0.88666099
 C          2.26599312    0.40549499    1.59566498
 H          3.00517511   -2.68738890    1.48733604
 H          3.25952411    0.65420902    1.98408902
 O          3.22783995   -1.76429605    1.65542698
 O          1.31513798    0.36926800    2.65261698
 H          1.57112801   -0.33902600    3.25670290
 H         -3.04988289   -2.10953808    1.62315595
 H         -0.86536002   -1.32259595    1.44332194
 C         -2.91949010   -1.57185495    0.68268400
 C         -1.41549397   -1.21517801    0.50946701
 H         -3.24439907   -2.22260404   -0.13150500
 H         -0.93759900   -1.81099701   -0.26846001
 H         -3.05869198    0.21443801    2.68312907
 H         -0.95411801    0.98456901    2.00382996
 C         -3.12273788    0.69340098    1.70404994
 C         -1.70069504    1.09992898    1.22023499
 C         -3.72903895   -0.27129799    0.67842400
 N         -1.35212195    0.19708000    0.11754000
 H         -4.77188778   -0.47691900    0.92554402
 H          0.15756699    0.51098198   -0.27211699
 H         -3.73589301    1.59057295    1.80312598
 H         -1.67446899    2.11883092    0.83405900
 C         -2.12751389    0.47954601   -1.09492099
 C         -3.63087797    0.36316100   -0.71249801
 H         -1.84116995   -0.25043899   -1.85114396
 H         -4.14068794   -0.25038499   -1.45695400
 H         -1.87424898    1.48230195   -1.43662000
 H         -4.09236622    1.35255206   -0.71143800
