48
wb97x-d4 ma-def2-tzvp(-f) cpcm(dmso) E: -1056.421198360287, G: -1056.04467746
 H          1.31522405    1.24317300   -3.49330807
 C          0.45793101    1.59341300   -2.91755295
 H          3.64640594   -2.82512307   -1.04862595
 H          0.05120200    2.49974108   -3.36236310
 H         -0.30818501    0.81559801   -2.89572811
 O          1.71257198   -0.15214001   -1.39829695
 H          2.77145410   -2.17825294   -2.44653392
 C          1.18441105    0.93314600   -0.72737402
 C          2.73603797   -2.30857897   -1.36299205
 O          0.86036003    1.96056199   -1.58936298
 O          3.22611403    2.08960199   -0.18532600
 C          2.71103501   -0.93488801   -0.71561801
 H          1.68252206   -3.45567393   -0.18960001
 C          2.06622410    1.50428498    0.38781399
 O          1.58091104   -3.08785892   -1.07533097
 H          3.68729997   -0.46240801   -0.87368703
 H          2.93491602    2.71706700   -0.86017501
 H          1.35285199   -1.30227697    0.89624101
 H          1.47432399    2.24917006    0.92940003
 C          2.39171696   -0.97491598    0.77273899
 C          2.53514910    0.41706899    1.37013900
 H          3.04728389   -1.95054197    2.32202411
 H          3.59764099    0.60039401    1.55949497
 O          3.26577306   -1.91220701    1.38268995
 O          1.80263603    0.42272800    2.58752298
 H          2.07409692    1.18890297    3.10674596
 H         -3.26351190    0.43143901    2.79013491
 H         -1.25009298    1.30966699    1.97951305
 C         -2.84636307   -0.21901800    2.01974893
 C         -1.42600000    0.28884900    1.64237106
 H         -2.78454804   -1.23133600    2.42428303
 H         -0.64112097   -0.35482600    2.03397393
 H         -3.83665800    1.96105194    0.83116198
 H         -1.72107100    2.31566906   -0.12651700
 C         -3.60400796    1.17944598    0.10517300
 C         -2.15009093    1.35854995   -0.42088699
 C         -3.71538901   -0.20252700    0.75783902
 N         -1.34799004    0.28527901    0.17692900
 H         -4.75487995   -0.41664201    1.01159501
 H          0.16580200    0.59016502   -0.22412300
 H         -4.29711199    1.27403998   -0.73224598
 H         -2.10000396    1.25441396   -1.50306904
 C         -1.65129399   -1.03158796   -0.39401701
 C         -3.18127203   -1.25387394   -0.22159301
 H         -1.06484604   -1.77126205    0.14952999
 H         -3.35297799   -2.26303411    0.15624100
 H         -1.35238898   -1.03381205   -1.44163501
 H         -3.68209410   -1.16063595   -1.18734097
