48
wb97x-d4 ma-def2-tzvp(-f) cpcm(dmso) E: -1056.420875656401, G: -1056.0444329400002
 H          0.18624499    2.58656311   -1.50580895
 C          1.05594301    2.94043803   -0.94657803
 H          2.26061893   -2.81104708   -1.97451198
 H          1.93308401    2.93000293   -1.59411097
 H          0.87433600    3.94717097   -0.57481599
 O          1.86178803    0.42543799   -1.16780496
 H          1.09060204   -1.62824702   -2.61399603
 C          1.22566295    0.76146001    0.01165700
 C          1.64519203   -1.94005597   -1.72242904
 O          1.27708101    2.12570500    0.21386600
 O          1.49615705    0.78489399    2.43634200
 C          2.57390690   -0.82049698   -1.29990602
 H          0.25015000   -3.02497602   -0.88595301
 C          1.77601504    0.05567600    1.26054394
 O          0.75341898   -2.23700500   -0.65288800
 H          3.25418091   -0.63274598   -2.13180208
 H          1.67660797    1.71863496    2.25847507
 H          3.12223792   -2.14350200    0.31946301
 H          1.29419506   -0.91629601    1.37252903
 C          3.43812394   -1.17231905   -0.07608400
 C          3.27156901   -0.16011301    1.04252994
 H          5.31690598   -1.60140300    0.20901500
 H          3.74668598    0.78883302    0.76223499
 O          4.78862906   -1.25723004   -0.52192801
 O          3.88952088   -0.69703901    2.20067596
 H          3.69888306   -0.09929900    2.93500400
 H         -4.03879690    1.98724198   -0.35839200
 H         -1.73864806    2.32164598   -0.22101501
 C         -3.61498094    1.37231696    0.43781999
 C         -2.06717992    1.54698801    0.46882200
 H         -4.03223896    1.70989394    1.38783205
 H         -1.69722497    1.76889205    1.46908903
 H         -3.98158002    0.00106500   -1.97207701
 H         -1.75580895    0.71082997   -1.95982301
 C         -3.42631793   -0.51450801   -1.18684101
 C         -1.92103004   -0.13442899   -1.29249501
 C         -3.93807101   -0.10625200    0.19936100
 N         -1.48719704    0.26798701    0.04837400
 H         -5.01544523   -0.26813099    0.26398200
 H          0.08142700    0.47922900   -0.07499100
 H         -3.54848289   -1.58955503   -1.33201694
 H         -1.30590105   -0.97463399   -1.60941696
 C         -1.68139601   -0.78466702    1.05204999
 C         -3.21530795   -0.94323701    1.25893199
 H         -1.17849803   -0.47564301    1.96785498
 H         -3.49159098   -0.60733700    2.26021099
 H         -1.22193003   -1.69331205    0.67208099
 H         -3.48153496   -1.99742699    1.16693497
