48
wb97x-d4 ma-def2-tzvp(-f) cpcm(dmso) E: -1056.421100321433, G: -1056.04430985
 H          1.21970105   -0.45378101   -3.72501397
 C          0.33333001    0.06276900   -3.35597801
 H          3.82938194   -2.75286508    0.23635501
 H         -0.13714901    0.62375098   -4.16134024
 H         -0.37127000   -0.66725701   -2.95117807
 O          1.70649600   -0.67705703   -1.24223804
 H          2.90568495   -2.88625693   -1.26920605
 C          1.09888399    0.55810398   -1.13547099
 C          2.88413906   -2.49753189   -0.24905200
 O          0.69399101    1.03724205   -2.36516595
 O          3.03207397    1.98304796   -1.28189600
 C          2.76657295   -0.98458499   -0.31648201
 H          1.92402899   -3.03753710    1.36098301
 C          1.93341398    1.64370406   -0.44893500
 O          1.78636503   -3.11880493    0.41003001
 H          3.70408702   -0.58327502   -0.71854299
 H          2.68090010    2.19256496   -2.15767598
 H          1.45387399   -0.64296699    1.33565295
 H          1.28102899    2.50745392   -0.28393400
 C          2.46269798   -0.34239700    1.03021300
 C          2.50334191    1.17261398    0.90065497
 H          3.20840597   -0.41847000    2.82397103
 H          3.55117011    1.48848903    0.92556798
 O          3.41079307   -0.82247901    1.97099400
 O          1.79639900    1.70026803    2.01456904
 H          2.02426696    2.63268995    2.11076403
 H         -2.79118991   -1.82898295    1.83270204
 H         -0.77343202   -1.67316401    0.63720697
 C         -2.96080208   -1.41697705    0.83586901
 C         -1.60157394   -1.19700801    0.11298100
 H         -3.55334306   -2.13476110    0.26646701
 H         -1.62409401   -1.54847395   -0.91784000
 H         -2.94194508    0.47586200    2.90924191
 H         -0.76899600    0.25198099    2.07800007
 C         -2.88871598    0.84151798    1.88255799
 C         -1.40225601    0.85093999    1.42592001
 C         -3.67913795   -0.06601800    0.93424100
 N         -1.36599505    0.25054601    0.08687400
 H         -4.69590092   -0.20546401    1.30509496
 H          0.11403600    0.42173800   -0.49155900
 H         -3.29189491    1.85599506    1.86012602
 H         -0.99678099    1.85924900    1.36184502
 C         -2.24751496    0.94573599   -0.85590798
 C         -3.70658493    0.58352101   -0.45330301
 H         -2.01452589    0.61323100   -1.86537600
 H         -4.13425922   -0.10354600   -1.18625796
 H         -2.04871607    2.01337004   -0.77024698
 H         -4.30898285    1.49327004   -0.44627601
