48
wb97x-d4 ma-def2-tzvp(-f) cpcm(dmso) E: -1056.420635038838, G: -1056.04428811
 H          0.90512800    3.79907298   -1.16403794
 C          1.05883300    2.74168205   -1.36983097
 H          0.95704103   -2.17895603    0.02253900
 H          0.18818100    2.33341408   -1.88759995
 H          1.95039797    2.60134602   -1.98107505
 O          1.88262403    0.22533099   -1.15626705
 H          2.04357195   -3.14025402   -0.97808802
 C          1.21567297    0.74168497   -0.06175300
 C          1.48626804   -2.19774795   -0.93198299
 O          1.22486901    2.11707211   -0.08764600
 O          1.50000703    1.18504596    2.32862902
 C          2.50556111   -1.06342804   -1.02138996
 H          0.91637599   -2.26794004   -2.79860210
 C          1.78883898    0.27538699    1.29174399
 O          0.49371400   -2.13022900   -1.94202399
 H          3.06453991   -1.16820204   -1.95234597
 H          1.65885401    2.07961607    1.99591398
 H          3.33780789   -2.02501798    0.72277200
 H          1.33565402   -0.67242700    1.58879995
 C          3.50467110   -1.10666203    0.14561300
 C          3.29020095    0.06684400    1.09116995
 H          5.43868017   -1.24124599    0.33910200
 H          3.72369194    0.97206002    0.64761800
 O          4.82169104   -1.11597502   -0.39290401
 O          3.93802309   -0.24053900    2.31396008
 H          3.75288701    0.47878101    2.93138790
 H         -3.89833689    2.06195593    0.16172300
 H         -1.56757998    2.21798706    0.38421601
 C         -3.51254702    1.25391805    0.78667402
 C         -1.95889103    1.29471600    0.81000203
 H         -3.88655591    1.39990699    1.80134702
 H         -1.55862296    1.16180599    1.81452596
 H         -4.13969898    0.49363700   -1.85450804
 H         -1.92287803    1.20565903   -1.75597298
 C         -3.54750490   -0.19149999   -1.24573803
 C         -2.04668903    0.19634201   -1.36662698
 C         -3.95157504   -0.10568500    0.23089600
 N         -1.48967803    0.17005099   -0.00798100
 H         -5.03102398   -0.22572100    0.33565700
 H          0.07766800    0.39959401   -0.11681100
 H         -3.70436311   -1.20446205   -1.62211597
 H         -1.48365498   -0.50591099   -1.97931504
 C         -1.70533705   -1.12517500    0.64920098
 C         -3.21749592   -1.20952904    0.99905199
 H         -1.08117700   -1.17303002    1.54111302
 H         -3.35988903   -1.08379304    2.07424092
 H         -1.40731001   -1.90382802   -0.05120700
 H         -3.59065199   -2.19564605    0.71793097
