60
energy: -1740.966423968204
 C          4.05713320    0.63196802    2.01564789
 C          3.16403103   -0.15628400    1.05488706
 H          3.54499197    0.78057200    2.97176003
 O          4.48107910    1.88350403    1.47568297
 H          4.96057606    0.05053600    2.20053101
 O          3.63705111   -1.51654601    1.00709796
 C          1.67604697   -0.19654000    1.46955299
 H          3.25804806    0.28806299    0.06095400
 C          0.93135399   -0.96336800    0.39866000
 O          1.12383604    1.06785202    1.75283301
 H          1.62372398   -0.78702098    2.39006591
 C          3.01183391   -2.31757092    0.01848000
 H          3.70935893    2.34542298    1.09302294
 O          0.67755699   -0.35379300   -0.78433502
 O          3.26395988   -1.85871196   -1.28063202
 H          1.49005103    1.76490903    1.14137006
 H          0.74977702    0.65086102   -0.78140301
 C          4.62572479   -2.00698304   -1.68794096
 C          1.47801697   -2.36466098    0.22831200
 H          3.43849111   -3.31605411    0.15765700
 H          1.31063998   -2.91850805    1.15332997
 O          0.84183401   -3.09320903   -0.80487400
 H          0.94964701   -2.58343792   -1.62068295
 C         -2.83569193   -0.68057400    0.63332802
 C         -2.72251201   -1.24192703   -0.79195797
 C         -3.70818806   -0.50998098   -1.71870506
 H         -1.70226800   -1.11731398   -1.15692902
 H         -2.94224191   -2.31278300   -0.78056997
 C         -5.13986015   -0.71904701   -1.20655704
 C         -5.26088285   -0.15869500    0.21795300
 H         -5.85265017   -0.21475700   -1.86650097
 H         -5.38802385   -1.78507102   -1.21357596
 C         -4.27128410   -0.88847899    1.14400601
 H         -4.36096621   -0.50431502    2.16399407
 H         -4.50364590   -1.95675695    1.17209804
 C         -2.52220106    0.82312399    0.62131703
 S         -1.70306206   -1.58255601    1.78989995
 C         -3.38000393    0.99030900   -1.73090696
 H         -3.61441302   -0.91643399   -2.72984600
 C         -3.50629497    1.55341399   -0.30756801
 H         -2.36539507    1.14917397   -2.10866809
 H         -4.06418180    1.51746500   -2.40319204
 H         -3.26816607    2.62090707   -0.30966499
 C         -4.93823385    1.34218001    0.20326300
 H         -2.59891295    1.21905994    1.63728797
 H         -1.49801600    0.98655498    0.28415301
 H         -5.04111719    1.75814199    1.21043599
 H         -6.27635288   -0.31511000    0.59262002
 H         -5.64896011    1.86988604   -0.44040099
 H         -0.41598701   -1.24698400    1.08493996
 H          4.94544697   -3.04860997   -1.58457005
 H          5.28509808   -1.36671495   -1.09819198
 H          4.67389107   -1.71244204   -2.73415899
 O          0.93144602    2.16054296   -1.36012304
 O          2.19151592    2.97568893    0.29462400
 C          2.16889501    4.16756821   -1.76489103
 C          1.72689795    3.01277399   -0.88705301
 H          1.67736197    4.14330721   -2.73527598
 H          3.25091505    4.11530304   -1.90531397
 H          1.95215404    5.11353302   -1.26546800
