60
energy: -1740.968189851061
 C          4.20723009    0.51374698    2.06411099
 C          3.30753493   -0.13796601    1.03446698
 H          3.98801303    1.57789803    2.12195492
 O          5.58753300    0.39555600    1.71250296
 H          4.02054405    0.06326300    3.04576111
 O          3.66203189   -1.53303301    1.03046799
 C          1.81003404    0.00583200    1.37393403
 H          3.50637698    0.29267499    0.04896100
 C          1.00748098   -0.80504298    0.37137401
 O          1.40144598    1.34834802    1.47979403
 H          1.65839899   -0.45750800    2.35443807
 C          2.98964691   -2.31772208    0.06036000
 H          5.77053022   -0.54438800    1.57702303
 O          0.74855500   -0.28756499   -0.84913802
 O          3.26811290   -1.91678703   -1.25008094
 H          1.73001206    1.88582003    0.70371199
 H          0.63296300    0.72410399   -0.91507500
 C          4.61784601   -2.16158700   -1.65073395
 C          1.46459901   -2.24699306    0.29203200
 H          3.34750390   -3.33833909    0.23030600
 H          1.28379703   -2.72447300    1.25654995
 O          0.75739503   -2.99800205   -0.67704803
 H          0.76603800   -2.48378301   -1.49723601
 C         -2.76683307   -0.50343198    0.79284298
 C         -4.15611792   -0.64267302    1.43826306
 C         -5.22326422   -0.04009300    0.50729501
 H         -4.37456179   -1.69822204    1.62338102
 H         -4.16874313   -0.12872900    2.40350795
 C         -4.91813087    1.44599795    0.27009100
 C         -3.53340697    1.58625901   -0.37780601
 H         -5.68297482    1.88419902   -0.37864101
 H         -4.94441795    1.99169803    1.21855795
 C         -2.47084403    0.98479003    0.55721700
 H         -1.48024499    1.10357594    0.11803900
 H         -2.47075200    1.51310098    1.51434195
 C         -2.76060390   -1.24696100   -0.55157697
 S         -1.53774905   -1.24215198    1.96443903
 C         -5.21003723   -0.78378397   -0.83611602
 H         -6.20427704   -0.14562000    0.97908098
 C         -3.82538605   -0.64426398   -1.48419702
 H         -5.44803190   -1.84109497   -0.68253797
 H         -5.97759914   -0.37073299   -1.49801195
 H         -3.80848503   -1.18127406   -2.43704009
 C         -3.51563096    0.84114403   -1.72041094
 H         -1.77394295   -1.17148304   -1.01140296
 H         -2.96565294   -2.30727005   -0.38225600
 H         -2.53674293    0.94917297   -2.19665694
 H         -3.30609012    2.64387488   -0.53955001
 H         -4.25710583    1.27460802   -2.39890003
 H         -0.30660200   -0.97448599    1.12870097
 H          4.68390512   -1.90165496   -2.70520091
 H          4.87279606   -3.21755409   -1.51655102
 H          5.31642103   -1.54624200   -1.07975996
 O          0.38944501    2.14452195   -1.52096200
 O          2.18525505    2.95362711   -0.46613100
 C          1.23284602    4.26299715   -2.22175193
 C          1.28101206    3.02523708   -1.34323800
 H          0.63091099    5.02253723   -1.71496797
 H          0.76590502    4.04679918   -3.18164396
 H          2.23107910    4.67247105   -2.37187791
