60
energy: -1740.965640555156
 C          4.02596378   -1.73770797    2.76480293
 C          3.21487498   -0.98677802    1.72997403
 H          3.96610188   -1.21936297    3.71993589
 O          5.41013193   -1.80017102    2.41562605
 H          3.61357498   -2.74600697    2.88575697
 O          3.30858493   -1.75266302    0.51821399
 C          1.73660600   -0.83166200    2.13782310
 H          3.64717102    0.00624700    1.57313299
 C          0.97208101   -0.21359000    0.98168099
 O          1.61482000   -0.05161000    3.31879210
 H          1.33067799   -1.82192397    2.35761404
 C          2.66325903   -1.16778696   -0.60345101
 H          5.46962023   -2.20563412    1.53974295
 O          1.09139800    1.13763297    0.99279100
 O          3.20236206    0.07054400   -0.95441401
 H          1.60776603    0.87758303    3.04183507
 H          0.94626999    1.58886099    0.08423200
 C          4.51887178   -0.00110400   -1.50155699
 C          1.15808105   -0.99006701   -0.31015301
 H          2.79969096   -1.89152598   -1.41346097
 H          0.78029197   -1.99809003   -0.12121200
 O          0.46058699   -0.49950501   -1.43003798
 H          0.63759398    0.46513700   -1.54377198
 C         -2.88951707   -0.46268699    0.66453302
 C         -2.60619903    0.94630802    0.12367300
 C         -3.59088993    1.27493501   -1.01204503
 H         -2.70886111    1.67462599    0.93242598
 H         -1.58171999    1.00488102   -0.24475101
 C         -3.43022895    0.24712300   -2.14237690
 C         -3.72663999   -1.15909696   -1.60146499
 H         -4.11403799    0.48460099   -2.96340895
 H         -2.41368008    0.28855899   -2.54376888
 C         -2.74139905   -1.49047303   -0.46741500
 H         -2.94164109   -2.49202800   -0.07743700
 H         -1.71772897   -1.47382104   -0.84260303
 C         -4.33016300   -0.51189798    1.20376503
 S         -1.76519406   -0.86768699    2.07727909
 C         -5.02721500    1.22320104   -0.47204700
 H         -3.37391591    2.27774596   -1.39100802
 C         -5.31871319   -0.18348999    0.07085700
 H         -5.15712690    1.96656406    0.32075199
 H         -5.73668098    1.46989906   -1.26807296
 H         -6.33675909   -0.22271700    0.46867499
 C         -5.16237497   -1.21015298   -1.05978405
 H         -4.54153204   -1.50663197    1.60657203
 H         -4.44508410    0.20619000    2.02030611
 H         -5.38609409   -2.21497893   -0.68761402
 H         -3.60844588   -1.89505005   -2.40219092
 H         -5.87565613   -0.99457997   -1.86150301
 H         -0.43349901   -0.52770400    1.42040896
 H          4.53911114   -0.67154801   -2.36652398
 H          5.23834801   -0.34984601   -0.75730199
 H          4.78152895    1.00671601   -1.81600595
 O          0.77786398    2.14716005   -1.32302296
 O          2.55334091    3.48447299   -1.08222198
 C          2.07450795    2.60819006   -3.26248288
 C          1.80519795    2.77856302   -1.77733803
 H          2.36143088    1.57119501   -3.45136404
 H          2.87297606    3.26665592   -3.59924698
 H          1.16640997    2.80453897   -3.83498502
