60
energy: -1740.96531536195
 C          4.24959803   -0.22535500    2.41976500
 C          3.34676600   -0.48871201    1.22013605
 H          3.70866704   -0.48301700    3.33844709
 O          4.71165705    1.12280798    2.46238899
 H          5.12948704   -0.86626202    2.35110807
 O          3.11434603   -1.90401196    1.20932806
 C          1.99484003    0.24773300    1.33660400
 H          3.85661101   -0.18068400    0.30234900
 C          1.07247496   -0.18966100    0.21204101
 O          2.16273093    1.64858305    1.44713497
 H          1.53870904   -0.08602500    2.27390289
 C          2.33621311   -2.36437392    0.11658800
 H          3.92433095    1.68042505    2.33419609
 O          1.20518899    0.36460501   -1.01545000
 O          2.94376493   -2.11614799   -1.11795604
 H          2.53840399    2.05001092    0.60970098
 H          1.18505704    1.39181900   -1.04916000
 C          4.12968111   -2.88292789   -1.33688498
 C          0.94348902   -1.69629896    0.13514800
 H          2.23419595   -3.44181705    0.28142899
 H          0.45288700   -2.05278111    1.04275501
 O          0.15723400   -2.11889911   -0.96139199
 H          0.40361401   -1.56253397   -1.71514297
 C         -2.79248810    0.14774700    0.55470800
 C         -2.63336706    0.44530001   -0.94382602
 C         -3.82751298   -0.13866501   -1.71860397
 H         -2.57764506    1.52611005   -1.09751201
 H         -1.70051706    0.01192700   -1.30886996
 C         -3.88501096   -1.65793502   -1.50260198
 C         -4.05338907   -1.95621002   -0.00546600
 H         -4.72196388   -2.08415389   -2.06452489
 H         -2.96959710   -2.12534189   -1.87728095
 C         -2.86073804   -1.37162602    0.77127999
 H         -2.96819806   -1.58309102    1.83843505
 H         -1.93337703   -1.83306205    0.43018901
 C         -4.09971285    0.78443098    1.05973995
 S         -1.41493499    0.90304297    1.53140295
 C         -5.12767076    0.50150102   -1.21068704
 H         -3.70056295    0.07896000   -2.78296089
 C         -5.29485178    0.20138700    0.28583899
 H         -5.10114384    1.58334506   -1.37458003
 H         -5.98330116    0.10843500   -1.76847303
 H         -6.21433020    0.66399699    0.65548003
 C         -5.35449791   -1.31779695    0.50074703
 H         -4.21669912    0.59050101    2.12979102
 H         -4.05956507    1.86866295    0.92367297
 H         -5.49424219   -1.54216301    1.56293905
 H         -4.08562613   -3.03788209    0.15406200
 H         -6.21163607   -1.73632705   -0.03575600
 H         -0.23217399    0.29493201    0.79135501
 H          4.45331621   -2.67613506   -2.35485911
 H          3.92091298   -3.95190811   -1.22842097
 H          4.91934395   -2.59725499   -0.63859999
 O          3.15532398    3.03693795   -0.55849099
 O          1.11931896    2.86157608   -1.45760703
 C          2.46820807    4.71204901   -2.12202811
 C          2.23334098    3.45091510   -1.31185901
 H          1.54101002    5.27111912   -2.24447608
 H          2.81707907    4.42304611   -3.11733508
 H          3.22932410    5.33999491   -1.66181195
