60
energy: -1740.968111722068
 C          4.08273792    0.53251499    2.32578397
 C          3.26906109   -0.11272700    1.22258103
 H          3.85948706    1.59636199    2.37090492
 O          5.48710108    0.41577899    2.08849812
 H          3.81587601    0.07766000    3.28666401
 O          3.62089801   -1.50800598    1.23819995
 C          1.75009203    0.03119400    1.44409800
 H          3.54661489    0.32364601    0.25880200
 C          1.02295303   -0.77906102    0.38412499
 O          1.33597100    1.37353301    1.52019596
 H          1.52307403   -0.43169600    2.41013408
 C          3.02864790   -2.28316593    0.21005900
 H          5.68458223   -0.52516901    1.98473299
 O          0.84505701   -0.25871101   -0.85018498
 O          3.40678310   -1.86544204   -1.06974804
 H          1.68371904    1.90325499    0.74808902
 H          0.67200899    0.74595100   -0.91448700
 C          4.78606319   -2.09810495   -1.36329305
 C          1.49042201   -2.21813989    0.32707199
 H          3.37587690   -3.30491209    0.39524999
 H          1.24164605   -2.70454097    1.27201295
 O          0.85874498   -2.96105599   -0.69870299
 H          0.88963503   -2.41976595   -1.50086701
 C         -2.78135800   -0.51209301    0.65419000
 C         -2.69380212   -1.27132297   -0.67916602
 C         -3.74073410   -0.71991599   -1.66259205
 H         -1.69231701   -1.16303396   -1.09940195
 H         -2.86535692   -2.33676505   -0.50485498
 C         -5.14428711   -0.90034097   -1.06697404
 C         -5.23667002   -0.13826300    0.26272899
 H         -5.89970493   -0.52565801   -1.76450205
 H         -5.34867811   -1.96332896   -0.90488499
 C         -4.18960714   -0.69159001    1.24458003
 H         -4.26017094   -0.16797300    2.20229411
 H         -4.37905788   -1.75195503    1.43399096
 C         -2.52354503    0.98153800    0.40799201
 S         -1.57871497   -1.19908094    1.88173199
 C         -3.47428107    0.77260500   -1.90671504
 H         -3.66533208   -1.26814401   -2.60604501
 C         -3.56847692    1.53469896   -0.57674199
 H         -2.48301291    0.90979701   -2.34880495
 H         -4.20504999    1.17133796   -2.61730790
 H         -3.37047791    2.59709597   -0.74522603
 C         -4.97266722    1.35496700    0.01799300
 H         -2.57649207    1.52320397    1.35615301
 H         -1.52088904    1.12455702    0.00412500
 H         -5.05581808    1.90897703    0.95821899
 H         -6.23205996   -0.27141699    0.69596201
 H         -5.72514391    1.75922799   -0.66612703
 H         -0.32905099   -0.94705999    1.06951499
 H          5.43251896   -1.48165202   -0.73499203
 H          4.93371296   -1.83146298   -2.40771103
 H          5.03726006   -3.15300488   -1.21460998
 O          0.37494400    2.15812111   -1.50474405
 O          2.13948989    2.98716497   -0.41303599
 C          1.16429806    4.31667089   -2.14203811
 C          1.24087501    3.05822897   -1.29589796
 H          0.50875503    5.03162384   -1.63685000
 H          0.74024802    4.10571003   -3.12284589
 H          2.14610505    4.77661991   -2.24643111
