60
energy: -1740.968236873219
 C          4.08477306    0.52674502    2.32657909
 C          3.26984501   -0.11639900    1.22308505
 H          3.86272001    1.59078300    2.37312794
 O          5.48888397    0.40869799    2.08818293
 H          3.81808805    0.07099800    3.28708410
 O          3.62086701   -1.51195705    1.23667896
 C          1.75102699    0.02787200    1.44553196
 H          3.54708695    0.32102901    0.25968999
 C          1.02329504   -0.78001398    0.38418600
 O          1.33728898    1.37011302    1.52475405
 H          1.52423406   -0.43696901    2.41067290
 C          3.02791595   -2.28516412    0.20749000
 H          5.68480682   -0.53224200    1.98141003
 O          0.84619999   -0.25794199   -0.84947699
 O          3.40614891   -1.86559606   -1.07169998
 H          1.68350303    1.90165198    0.75321001
 H          0.67304802    0.74690598   -0.91292298
 C          4.78520584   -2.09866500   -1.36591899
 C          1.48965597   -2.21932101    0.32490399
 H          3.37454510   -3.30741405    0.39101499
 H          1.24075699   -2.70701194    1.26914299
 O          0.85730702   -2.96021104   -0.70194501
 H          0.88762403   -2.41722107   -1.50299394
 C         -2.78134704   -0.51080298    0.65230101
 C         -2.68950105   -1.26560199   -0.68324500
 C         -3.73588395   -0.71349198   -1.66684997
 H         -1.68749297   -1.15358496   -1.10116506
 H         -2.85887408   -2.33199596   -0.51269102
 C         -5.14007711   -0.89902800   -1.07429194
 C         -5.23676682   -0.14110000    0.25747600
 H         -5.89523983   -0.52433401   -1.77209604
 H         -5.34205103   -1.96298897   -0.91560698
 C         -4.19031286   -0.69509798    1.23957002
 H         -4.26375914   -0.17453501    2.19873595
 H         -4.37776279   -1.75643802    1.42548203
 C         -2.52626491    0.98416102    0.41136700
 S         -1.57966399   -1.19935596    1.87990606
 C         -3.47235203    0.78036398   -1.90579998
 H         -3.65758204   -1.25858998   -2.61187911
 C         -3.57061005    1.53812504   -0.57360798
 H         -2.48066092    0.92120099   -2.34573102
 H         -4.20278502    1.17975605   -2.61637998
 H         -3.37465906    2.60146999   -0.73844498
 C         -4.97560310    1.35343504    0.01774100
 H         -2.58224201    1.52258396    1.36121297
 H         -1.52304101    1.13079000    0.01001300
 H         -5.06213093    1.90458405    0.95934701
 H         -6.23268080   -0.27780101    0.68838799
 H         -5.72747278    1.75796402   -0.66688800
 H         -0.32925200   -0.94721299    1.06882298
 H          4.93282986   -1.83019602   -2.40987611
 H          5.03571796   -3.15400195   -1.21922898
 H          5.43224382   -1.48381996   -0.73663902
 O          2.13587689    2.99005604   -0.40463400
 O          0.37580600    2.15846205   -1.50157702
 C          1.15967298    4.32105398   -2.13184810
 C          1.23861504    3.06066394   -1.28885901
 H          0.73580003    4.11191082   -3.11311197
 H          2.14070106    4.78290892   -2.23521900
 H          0.50312197    5.03368521   -1.62468195
