60
energy: -1740.965155553896
 C          4.74547100    0.16069099    1.96648395
 C          3.77062893   -0.47566399    0.98181099
 H          4.31645918    0.12083700    2.97532606
 O          5.07511377    1.50129604    1.60754395
 H          5.67317009   -0.41320601    1.96729505
 O          3.71493411   -1.86609006    1.31432605
 C          2.36316800    0.14906999    1.07044601
 H          4.14804411   -0.34536800   -0.03635600
 C          1.39373004   -0.64043897    0.20442300
 O          2.49765491    1.50463104    0.69857502
 H          2.02968192    0.05383600    2.11332798
 C          2.92231393   -2.63822293    0.42538500
 H          4.23726797    1.92538595    1.34890199
 O          1.31808496   -0.34983200   -1.11405396
 O          3.39200401   -2.60007501   -0.89012098
 H          1.61837006    1.96553802    0.53553700
 H          1.12013698    0.63410902   -1.31831098
 C          4.64460421   -3.26343703   -1.07151496
 C          1.46701801   -2.13363004    0.46142101
 H          2.97357392   -3.65833902    0.81901699
 H          1.11502695   -2.32448697    1.47657001
 O          0.63586599   -2.87030506   -0.41422200
 H          0.71634102   -2.46226096   -1.28904498
 C         -2.51689291    0.00980300    0.69058400
 C         -3.66676593   -0.91081399    1.13405800
 C         -4.87955093   -0.71364897    0.20786799
 H         -3.33503509   -1.95174003    1.10249305
 H         -3.94429302   -0.68519402    2.16787100
 C         -5.34493685    0.74801499    0.27124599
 C         -4.20125294    1.66808903   -0.17870800
 H         -6.21739912    0.89009500   -0.37403700
 H         -5.65020180    1.00078499    1.29158604
 C         -2.99190903    1.47073805    0.75132698
 H         -2.17549109    2.13249612    0.45925501
 H         -3.26616001    1.72284806    1.77962101
 C         -2.12302995   -0.33717400   -0.75086802
 S         -1.09193695   -0.24061200    1.85602701
 C         -4.47860622   -1.06156802   -1.23328400
 H         -5.68751097   -1.37374604    0.53635699
 C         -3.33367109   -0.14153101   -1.68015504
 H         -4.16452503   -2.10838795   -1.29322803
 H         -5.33880997   -0.94128799   -1.89925396
 H         -3.03621292   -0.39168099   -2.70264506
 C         -3.79767990    1.32080603   -1.61836696
 H         -1.30079198    0.29919600   -1.07700098
 H         -1.77535295   -1.37149596   -0.79923898
 H         -2.99530196    1.98380399   -1.95336497
 H         -4.52417183    2.71192908   -0.12666599
 H         -4.64681721    1.47211599   -2.29232597
 H          0.09104900   -0.34268299    0.87447602
 H          4.58934879   -4.29374886   -0.70621097
 H          5.44831991   -2.73895597   -0.55004102
 H          4.84658194   -3.26587605   -2.14060307
 O          0.40642199    2.91907191    0.09998900
 O          0.59705698    1.96014404   -1.91194105
 C         -0.68285602    3.96725607   -1.74138606
 C          0.16501600    2.86343193   -1.13689303
 H         -1.13267100    3.65145612   -2.68098998
 H         -0.04155100    4.83096981   -1.93770194
 H         -1.45689905    4.28033209   -1.04142904
