60
energy: -1740.965556507598
 C          3.27777600    0.35332400    2.70744300
 C          3.00241089   -0.30495501    1.36053503
 H          2.69834208   -0.16037600    3.48430610
 O          2.98676991    1.74862599    2.69431090
 H          4.33676291    0.24526800    2.94503403
 O          3.52487302   -1.63675499    1.46212995
 C          1.49205995   -0.37856299    1.04055595
 H          3.52076197    0.24711700    0.57080400
 C          1.29097795   -1.16436601   -0.24176601
 O          0.88434601    0.90378100    1.07965505
 H          1.03073394   -0.96060699    1.84372103
 C          3.41830206   -2.40897489    0.27934700
 H          2.10221004    1.83149695    2.29667211
 O          1.51265705   -0.57520700   -1.44380295
 O          4.15244198   -1.87319696   -0.78352600
 H          1.07313395    1.41122901    0.24758700
 H          1.38047099    0.43107399   -1.44858003
 C          5.56804085   -1.94392204   -0.59855199
 C          1.94163406   -2.53377390   -0.15472700
 H          3.80888891   -3.39418292    0.55322403
 H          1.44159102   -3.10848308    0.62601602
 O          1.81891596   -3.27741790   -1.35185397
 H          2.19093895   -2.73726892   -2.06400609
 C         -2.57785892   -0.75615603    0.02576200
 C         -4.03319502   -1.17988098   -0.24008100
 C         -4.96485519    0.03258200   -0.06691000
 H         -4.12334585   -1.57994103   -1.25372100
 H         -4.31983519   -1.97444403    0.45486999
 C         -4.84583378    0.57382101    1.36506295
 C         -3.39516902    0.99887401    1.63259602
 H         -5.51767302    1.42773700    1.49669898
 H         -5.15055323   -0.19368500    2.08351803
 C         -2.46851611   -0.21788600    1.46130204
 H         -1.43542802    0.06413800    1.66947997
 H         -2.75006890   -1.00472105    2.16619897
 C         -2.18383193    0.34723699   -0.96511102
 S         -1.52254200   -2.25766897   -0.20655100
 C         -4.56340408    1.13002706   -1.06289601
 H         -5.99418497   -0.28331199   -0.25877601
 C         -3.11392689    1.55884600   -0.79483098
 H         -4.66140890    0.76016998   -2.08840299
 H         -5.23344707    1.98938298   -0.96133101
 H         -2.81992507    2.33378601   -1.50746000
 C         -2.99238706    2.09784889    0.63784599
 H         -1.15113997    0.64494300   -0.78644401
 H         -2.24648905   -0.03592700   -1.98665297
 H         -1.96634400    2.42397594    0.82976002
 H         -3.30308890    1.37497401    2.65564704
 H         -3.64023089    2.97087502    0.76386601
 H         -0.14819300   -1.59046900   -0.20494901
 H          5.89022017   -1.30124700    0.22349399
 H          6.02273989   -1.60233700   -1.52601099
 H          5.87740803   -2.97391391   -0.39539999
 O          1.31688499    1.96993995   -1.29858196
 O          0.02146900    3.78388810   -1.39369595
 C         -0.00292500    2.28046298   -3.26074791
 C          0.45488900    2.72946191   -1.88291204
 H         -0.84868002    2.87130690   -3.60665298
 H         -0.27096400    1.22352302   -3.24668002
 H          0.82485902    2.39803910   -3.96478510
