60
energy: -1740.965567872442
 C          3.37257099    0.78176898    2.48814893
 C          3.03772402   -0.02641800    1.24984300
 H          4.46184492    0.84344298    2.58124709
 O          2.79828310    0.24443300    3.67998600
 H          2.97646403    1.78927696    2.37666512
 O          3.60972095   -1.33123100    1.45486903
 C          1.52006495   -0.17266700    1.00195706
 H          3.50602889    0.45759699    0.38656101
 C          1.31288600   -1.08163702   -0.19574000
 O          0.87039602    1.07879603    0.93607098
 H          1.10591996   -0.69181103    1.86907303
 C          3.48349810   -2.22442889    0.36433300
 H          3.14159799   -0.65187299    3.79460311
 O          1.48202300   -0.59942698   -1.45235705
 O          4.17403889   -1.78797996   -0.77187598
 H          1.05325699    1.52496099    0.07652200
 H          1.36287498    0.40886000   -1.54256403
 C          5.59524012   -1.81313705   -0.62435102
 C          1.99762702   -2.42174101   -0.00706500
 H          3.90506697   -3.16805506    0.72559297
 H          1.53707802   -2.93351197    0.83926201
 O          1.85469306   -3.27394509   -1.12777901
 H          2.16623306   -2.78187203   -1.90125704
 C         -2.55750299   -0.74527198    0.14504500
 C         -4.00432777   -1.22690296   -0.06096400
 C         -4.96477985   -0.02714400    0.00624500
 H         -4.09326982   -1.72367203   -1.03096902
 H         -4.26509905   -1.95830703    0.70952302
 C         -4.84565115    0.65021700    1.37893105
 C         -3.40396810    1.13557899    1.58532906
 H         -5.53979683    1.49412000    1.44142199
 H         -5.11960697   -0.05565500    2.16939497
 C         -2.44625092   -0.06742700    1.51993704
 H         -1.41854799    0.26035300    1.68430603
 H         -2.69836807   -0.78871399    2.30190611
 C         -2.20137691    0.26556000   -0.95391899
 S         -1.46951699   -2.23794603    0.04726500
 C         -4.60132217    0.97873199   -1.09541905
 H         -5.98757219   -0.38511801   -0.14220500
 C         -3.15991092    1.46636105   -0.88815802
 H         -4.69883919    0.50819600   -2.07885504
 H         -5.29303885    1.82664502   -1.07098806
 H         -2.89259505    2.17617702   -1.67544997
 C         -3.03829098    2.14224792    0.48480701
 H         -1.17376304    0.60305202   -0.82257301
 H         -2.26892495   -0.21670800   -1.93241203
 H         -2.01800895    2.50656009    0.63437802
 H         -3.31103992    1.61118400    2.56605697
 H         -3.70320201    3.01029897    0.53526801
 H         -0.12235000   -1.54334605   -0.06925600
 H          6.01570511   -1.54340303   -1.59090805
 H          5.93454218   -2.81524396   -0.34373200
 H          5.92567778   -1.09564102    0.12970100
 O          1.28133595    1.95248699   -1.55796599
 O          0.01468600    1.99803603   -3.39908695
 C         -0.12377300    3.84403801   -1.87349105
 C          0.41188100    2.49904895   -2.33459306
 H         -0.84798998    4.24572706   -2.57935905
 H          0.70302498    4.54796696   -1.75763297
 H         -0.59365302    3.73182797   -0.89459503
