60
energy: -1740.96576104306
 C          3.13798690    0.03165200    2.87693000
 C          2.93071508   -0.47384301    1.45363200
 H          2.52205992   -0.56309497    3.56263709
 O          2.84406495    1.42070305    3.00321388
 H          4.18415022   -0.10524900    3.15341711
 O          3.44713593   -1.81125998    1.43501198
 C          1.43796003   -0.50067800    1.05401897
 H          3.48777103    0.15884800    0.75595301
 C          1.29466701   -1.14770806   -0.31086299
 O          0.83752602    0.77794802    1.19566703
 H          0.93417698   -1.15751004    1.76923001
 C          3.39251089   -2.45269299    0.17316601
 H          1.98351395    1.54984295    2.56651497
 O          1.57513201   -0.43823099   -1.43299496
 O          4.16992283   -1.80911398   -0.79512203
 H          1.07690096    1.36810696    0.43384099
 H          1.44639695    0.56345898   -1.33890295
 C          5.57676601   -1.90470099   -0.56165999
 C          1.93673599   -2.52360392   -0.33599100
 H          3.77186894   -3.46285701    0.35688600
 H          1.40041196   -3.17193604    0.35835800
 O          1.86744106   -3.13986397   -1.60725403
 H          2.27490401   -2.53268600   -2.24187899
 C         -2.57782507   -0.73368001   -0.18297300
 C         -2.50572991   -0.34949300    1.30311799
 C         -3.43479300    0.84652799    1.57654405
 H         -2.80319190   -1.20455503    1.91604197
 H         -1.47860396   -0.09109900    1.56394005
 C         -3.00103211    2.04192901    0.71520799
 C         -3.08335996    1.65896702   -0.76969999
 H         -3.64919996    2.90082502    0.91526800
 H         -1.97985494    2.33949089    0.96964800
 C         -2.15231395    0.46621400   -1.04142201
 H         -2.18504310    0.19300701   -2.09904408
 H         -1.12453103    0.73745102   -0.80243099
 C         -4.02554417   -1.11688805   -0.53613502
 S         -1.52150905   -2.20870090   -0.54384601
 C         -4.87817097    0.45904699    1.22573698
 H         -3.37028503    1.11216903    2.63572001
 C         -4.95802784    0.07516400   -0.25871801
 H         -5.20386219   -0.37971401    1.84912503
 H         -5.55227184    1.29677701    1.42964101
 H         -5.98241520   -0.21277800   -0.51165098
 C         -4.52681208    1.27071404   -1.12007105
 H         -4.08585215   -1.39944899   -1.59074605
 H         -4.33692217   -1.98242903    0.05578500
 H         -4.60074091    1.01551199   -2.18194389
 H         -2.76643991    2.50340700   -1.38733006
 H         -5.19561100    2.11850095   -0.94195300
 H         -0.14572600   -1.56254900   -0.39180201
 H          5.87934017   -2.95185590   -0.46280101
 H          5.86409903   -1.35863602    0.33934999
 H          6.06844902   -1.46297801   -1.42585599
 O          1.39439797    2.08291602   -1.03370905
 O          0.12810899    3.91806006   -0.95240998
 C          0.13406600    2.64128804   -2.98067188
 C          0.55998498    2.91932797   -1.54870605
 H         -0.70546103    3.27005911   -3.27042007
 H         -0.13045201    1.59055495   -3.10245109
 H          0.97716898    2.84569311   -3.64568400
