60
energy: -1740.964051097992
 C          3.06899810    0.81081003    2.36950588
 C          2.53696108    0.15197100    1.09310198
 H          2.30359602    1.46133804    2.80411601
 O          4.27820015    1.53779304    2.15520191
 H          3.29907107    0.02755400    3.09175801
 O          2.31230211   -1.24504602    1.36425602
 C          1.20612299    0.75202203    0.58748901
 H          3.29972196    0.24292400    0.31659001
 C          0.82653600    0.01814000   -0.68025303
 O          1.23191404    2.15300798    0.43248501
 H          0.45116299    0.51853102    1.34427595
 C          1.98486197   -2.01693892    0.22220001
 H          4.14633703    2.14124393    1.39643395
 O          1.48414898    0.33546001   -1.82546496
 O          3.01466894   -2.04112601   -0.72586900
 H          2.14122891    2.46768403    0.16999801
 H          2.02641702    1.18066800   -1.78445899
 C          4.16921902   -2.77111101   -0.30549300
 C          0.70653898   -1.47494805   -0.46307799
 H          1.79986203   -3.02418089    0.60887098
 H         -0.11196600   -1.66343904    0.23169100
 O          0.41354299   -2.19454098   -1.64515901
 H          1.13269305   -2.02296090   -2.27005911
 C         -3.09177899    0.11056600   -0.40386900
 C         -4.47649097    0.75597602   -0.59352100
 C         -5.52497721   -0.00900200    0.23262700
 H         -4.44306517    1.80218506   -0.27762300
 H         -4.74983311    0.73947698   -1.65240502
 C         -5.57980108   -1.47135901   -0.23068000
 C         -4.20119810   -2.11916494   -0.03925900
 H         -6.33454323   -2.01698494    0.34400800
 H         -5.87473917   -1.52080202   -1.28356600
 C         -3.15744090   -1.35272396   -0.86966801
 H         -2.17775702   -1.82172298   -0.76452100
 H         -3.42169309   -1.38481200   -1.92979002
 C         -2.71683311    0.15908600    1.08445203
 S         -1.89968503    1.08820403   -1.42716897
 C         -5.14045906    0.04427300    1.71816599
 H         -6.50105095    0.46191299    0.08581000
 C         -3.76338911   -0.60611099    1.91248298
 H         -5.11557722    1.08315206    2.06153107
 H         -5.89149618   -0.47911599    2.31794190
 H         -3.48016500   -0.56446898    2.96797395
 C         -3.81151700   -2.06811690    1.44532204
 H         -1.73232400   -0.28838000    1.23449194
 H         -2.65703201    1.19886994    1.41566205
 H         -2.83467102   -2.53929210    1.59292603
 H         -4.23066187   -3.15882707   -0.37764600
 H         -4.53705883   -2.62877798    2.04275489
 H         -0.59314001    0.47674200   -0.95827103
 H          4.65490103   -2.28572202    0.54360801
 H          4.85248804   -2.79098701   -1.15188301
 H          3.89609909   -3.79456401   -0.03012900
 O          3.20535803    2.26155591   -2.16155696
 O          3.65482807    3.02868104   -0.11293100
 C          5.31419516    3.32349300   -1.80010498
 C          3.95517612    2.83914995   -1.33321702
 H          6.06427813    2.58961606   -1.49212503
 H          5.56826496    4.27283907   -1.32924604
 H          5.34921503    3.41817808   -2.88388491
