27
wb97x-d4 ma-def2-tzvp cpcm(acetone) E: -727.042101445475, G: -726.8518367099999, DLPNO-CCSD(T1) aug-cc-pvtz cpcm(acetone) E: -725.506498611643
 C         -1.27330697   -0.28778499    0.07340900
 C         -1.34483397    1.06117105   -0.65270501
 O         -0.06657500   -0.95464498   -0.29826501
 C         -2.41216397   -1.20994699   -0.31153399
 H         -1.28409195   -0.12550500    1.15979099
 C          1.09248698   -0.25545400    0.12317900
 C          1.16615403    1.06832504   -0.62589699
 C         -0.09258300    1.88810301   -0.36953399
 H          1.22972596    0.83910602   -1.69748199
 O          2.27412796    1.84711504   -0.20699300
 O         -0.17096999    2.29490399    0.99293798
 H         -0.08634800    2.77052093   -1.02004898
 O         -2.51290202    1.78249896   -0.29879001
 H         -1.40141499    0.87175101   -1.72871995
 H         -3.36315393   -0.72665602   -0.08669600
 O         -2.37957501   -2.42717791    0.42350501
 H         -2.36522508   -1.40722895   -1.39019501
 H         -1.52278602   -2.84038496    0.26418200
 H         -2.35558391    2.17725611    0.56895101
 H          0.62028700    2.80708098    1.19589698
 H          3.06712508    1.30312598   -0.28385100
 O          2.21446896   -0.99968100   -0.20902801
 H          1.04409695   -0.09225400    1.21063399
 C          2.42950106   -2.12973595    0.63474900
 H          3.37372708   -2.57797909    0.32761401
 H          1.62439203   -2.86072707    0.52266198
 H          2.49542308   -1.81579804    1.68222797
