27
wb97x-d4 ma-def2-tzvp cpcm(acetone) E: -727.041336928291, G: -726.85109626, DLPNO-CCSD(T1) aug-cc-pvtz cpcm(acetone) E: -725.505710124689
 C          1.14201701   -0.54938298   -0.15605401
 C          1.43084705    0.90322399    0.21349400
 O         -0.17320700   -0.89024597    0.27059299
 C          2.08492088   -1.52441895    0.52158099
 H          1.21738696   -0.66640198   -1.24746799
 C         -1.17302001   -0.13124301   -0.38785699
 C         -1.03190696    1.35360205   -0.05853700
 C          0.37677801    1.81141806   -0.41589200
 H         -1.75942802    1.91312504   -0.65787500
 O         -1.22503996    1.61186504    1.32377899
 O          0.59551901    3.16703010   -0.05514400
 H          0.49306199    1.75966501   -1.50294995
 O          2.72599602    1.23606396   -0.26535699
 H          1.39089298    1.00435603    1.30605102
 H          3.11243105   -1.29793298    0.23652600
 O          1.82687795   -2.86494088    0.12379700
 H          1.98987699   -1.41603506    1.60959804
 H          0.90373403   -3.05466104    0.32930601
 H          2.84412503    2.18512988   -0.13611200
 H          0.27405801    3.27934694    0.84929699
 H         -2.14536810    1.42713296    1.54156899
 O         -2.41502309   -0.56058699    0.05043800
 H         -1.06927896   -0.27702099   -1.47644401
 C         -2.77468204   -1.85949695   -0.41707799
 H         -3.80417395   -2.03188205   -0.10539500
 H         -2.12711692   -2.62588501    0.01625100
 H         -2.71027493   -1.90181899   -1.51011503
