27
wb97x-d4 ma-def2-tzvp cpcm(acetone) E: -727.042687571415, G: -726.8516076999999, DLPNO-CCSD(T1) aug-cc-pvtz cpcm(acetone) E: -725.507244397268
 C         -1.26667404   -0.01886700    0.39441600
 C         -1.01691496    1.47611797    0.19085500
 O         -0.25153601   -0.78018999   -0.25872701
 C         -2.59544301   -0.48795399   -0.16405100
 H         -1.23902404   -0.22995999    1.47364199
 C          1.03049397   -0.55021501    0.29839700
 C          1.44209802    0.90929598    0.11093900
 C          0.37822199    1.82083404    0.72417098
 H          2.40018201    1.07255805    0.61746502
 O          1.55662799    1.22231197   -1.27390504
 O          0.68970501    3.18934989    0.53952301
 H          0.37902799    1.64541602    1.80382299
 O         -1.16397595    1.87345099   -1.16718102
 H         -1.76276100    2.03928208    0.75804698
 H         -3.40198588    0.09105000    0.29060099
 O         -2.84004807   -1.85537696    0.14582200
 H         -2.61668801   -0.32640499   -1.24623895
 H         -2.13124394   -2.37468195   -0.25158399
 H         -0.42573601    1.48697197   -1.66153300
 H          0.53521103    3.40065408   -0.38985899
 H          2.12065506    0.55453199   -1.68324101
 O          1.95164597   -1.34074295   -0.37147799
 H          1.00550795   -0.79950303    1.37236404
 C          1.82002902   -2.73726296   -0.10925400
 H          2.65202308   -3.23011398   -0.61069101
 H          0.87540197   -3.12258792   -0.50046802
 H          1.87519896   -2.92795992    0.96814799
