53
wb97x-d4 ma-def2-tzvp(-f) cpcm(dmso) E: -1515.688793429968, G: -1515.2778812400002
 C         -4.49757910    1.55287504    1.19253504
 C         -3.46577501    0.59775901    0.62047201
 H         -5.08467722    1.01929200    1.94800997
 O         -5.34832907    2.10544896    0.19311699
 H         -3.98729897    2.38790393    1.67311597
 O         -4.19970417   -0.47332501    0.01569000
 C         -2.55097795    1.26522899   -0.41239199
 H         -2.85946798    0.21388400    1.44917703
 C         -1.70419502    0.22036600   -1.10443103
 O         -1.76834095    2.28871799    0.17902701
 H         -3.17362309    1.75345099   -1.17005503
 C         -3.39853096   -1.53300905   -0.46178800
 H         -5.82422876    1.37536299   -0.22116300
 O         -0.90565997    0.75264698   -2.08431506
 O         -2.62798810   -2.12496209    0.53889102
 H         -1.11718798    1.86159801    0.75999999
 H         -0.55923402    0.02507700   -2.62266803
 C         -3.39892507   -2.83662391    1.50594902
 C         -2.44969201   -1.02379596   -1.54425597
 H         -4.10348415   -2.25772309   -0.88298398
 H         -3.06712294   -0.74263698   -2.40508604
 O         -1.55666494   -2.02013302   -2.00980496
 H         -1.11537397   -2.39967203   -1.23651004
 C          1.69061601    0.03501900    0.54196799
 C          2.70082092   -0.11983600    1.69011605
 C          4.12101078    0.13289900    1.16227698
 H          2.46427798    0.59215301    2.48779702
 H          2.63079500   -1.12864196    2.11021495
 C          4.44571400   -0.88348901    0.06172500
 C          3.44034696   -0.73125601   -1.08509505
 H          5.46398687   -0.72014397   -0.30795199
 H          4.40163422   -1.90115905    0.46555799
 C          2.02374911   -0.98463702   -0.55443197
 H          1.29810703   -0.90500098   -1.36869895
 H          1.94801497   -1.99599600   -0.14257300
 C          1.78903902    1.45764899   -0.02049400
 S          0.04104800   -0.29957700    1.25074506
 C          4.21305084    1.55216897    0.59165502
 H          4.82885122    0.02004600    1.98975599
 C          3.20676708    1.70560801   -0.55394900
 H          4.00058985    2.28646994    1.37678301
 H          5.22901106    1.74234796    0.22834399
 H          3.26154900    2.72047591   -0.96110100
 C          3.52400804    0.68866003   -1.65663302
 H          1.05725300    1.58977199   -0.82028300
 H          1.55295503    2.17657089    0.77111900
 H          2.81534910    0.80090100   -2.48506689
 H          3.66251612   -1.46006000   -1.87133706
 H          4.52787304    0.87176198   -2.05553889
 H         -0.82697898   -0.17993499   -0.03389500
 H         -4.03725481   -3.57827210    1.01375306
 H         -4.01951313   -2.15261602    2.09097910
 H         -2.69111896   -3.33961201    2.16372800
