53
wb97x-d4 ma-def2-tzvp(-f) cpcm(dmso) E: -1515.687415772613, G: -1515.2764827100002
 C         -4.50296497    1.63795805    0.92979997
 C         -3.49298906    0.63764101    0.39776599
 H         -3.97160792    2.52754807    1.27809894
 O         -5.31829977    1.09400105    1.96376705
 H         -5.17764282    1.92906296    0.12107900
 O         -4.22543907   -0.38848799   -0.27723899
 C         -2.50279808    1.30464804   -0.56576401
 H         -2.93768692    0.20437799    1.23852897
 C         -1.66209102    0.24879600   -1.25162005
 O         -1.70536399    2.27330995    0.09474300
 H         -3.06624699    1.84480202   -1.33711803
 C         -3.43188691   -1.46710801   -0.72095501
 H         -4.76888800    0.97791702    2.74781704
 O         -0.81077099    0.78140801   -2.18568707
 O         -2.73278689   -2.09488606    0.31149399
 H         -1.10619104    1.79939306    0.69493699
 H         -0.45562100    0.05678200   -2.72232699
 C         -3.57896996   -2.76892090    1.24182904
 C         -2.41200995   -0.97332901   -1.74410605
 H         -4.13339376   -2.16643190   -1.18874002
 H         -2.97250891   -0.67230803   -2.63639498
 O         -1.51515901   -1.98589802   -2.16538310
 H         -1.12777400   -2.37962604   -1.37053597
 C          1.65033901   -0.03119900    0.53477198
 C          2.60239792   -0.22645400    1.72531796
 C          4.04299593    0.07019900    1.28380895
 H          2.31354594    0.44304800    2.54229903
 H          2.52736497   -1.25518703    2.09301090
 C          4.44010401   -0.88855398    0.15555499
 C          3.49204397   -0.69677699   -1.03354394
 H          5.47291183   -0.69267797   -0.15290099
 H          4.39300823   -1.92462003    0.50913602
 C          2.05432606   -0.99413002   -0.58856398
 H          1.36983895   -0.88545299   -1.43454504
 H          1.97351599   -2.02461600   -0.22834501
 C          1.75495994    1.41727304    0.04406400
 S         -0.02737200   -0.41912699    1.14388299
 C          4.14235592    1.51583898    0.78485000
 H          4.70952797   -0.07167700    2.14065289
 C          3.19345403    1.70988202   -0.40293500
 H          3.87964797    2.21014690    1.59087896
 H          5.17256403    1.73520195    0.48353201
 H          3.25253892    2.74319196   -0.75994802
 C          3.58098888    0.74951100   -1.53382802
 H          1.06425905    1.57551396   -0.78652298
 H          1.46646297    2.09561896    0.85405099
 H          2.91117096    0.89034301   -2.38971996
 H          3.76560307   -1.38496900   -1.83987606
 H          4.59975719    0.96494102   -1.87464201
 H         -0.84156299   -0.20564801   -0.16392900
 H         -2.92624688   -3.31071091    1.92528403
 H         -4.23459005   -3.47411609    0.71953499
 H         -4.18683100   -2.05543900    1.80467796
