53
wb97x-d4 ma-def2-tzvp(-f) cpcm(dmso) E: -1515.687284250324, G: -1515.27645462
 C         -4.37982893    1.57152700    1.21518695
 C         -3.43688607    0.60803300    0.52979600
 H         -5.08073902    0.99220902    1.82597494
 O         -5.07816696    2.34043407    0.23783800
 H         -3.79366589    2.22018600    1.87301397
 O         -4.22704792   -0.33908600   -0.19636500
 C         -2.45251799    1.31015098   -0.41435999
 H         -2.87210488    0.09122800    1.31427395
 C         -1.65805399    0.28152299   -1.18817902
 O         -1.62135804    2.21536803    0.29274300
 H         -3.01889396    1.91199994   -1.13224399
 C         -3.48052096   -1.40296996   -0.74575299
 H         -5.65831900    2.95295310    0.70319402
 O         -0.80222303    0.84827298   -2.09863400
 O         -2.77348995   -2.12932110    0.21514800
 H         -1.04723406    1.69448996    0.87606800
 H         -0.49264601    0.15115800   -2.69654298
 C         -3.61336398   -2.85967708    1.10778296
 C         -2.46971893   -0.86679798   -1.75613701
 H         -4.21623182   -2.04297495   -1.24462104
 H         -3.04022002   -0.47236499   -2.60461092
 O         -1.62880301   -1.87718904   -2.28432608
 H         -1.23394895   -2.34617996   -1.53544796
 C          1.67551601   -0.18085299    0.53165698
 C          1.75909805    1.31846094    0.22578301
 C          3.19336104    1.68633497   -0.17638800
 H          1.06750095    1.56923401   -0.58105499
 H          1.45973599    1.88588703    1.11348200
 C          4.14493513    1.35689998    0.97913599
 C          4.06758785   -0.14235900    1.29003298
 H          5.17171097    1.62880599    0.71065599
 H          3.87204504    1.93853998    1.86685705
 C          2.63173389   -0.51125097    1.68902600
 H          2.57008004   -1.57859600    1.92633498
 H          2.33498597    0.04696100    2.58319306
 C          2.09312391   -0.98837501   -0.70393503
 S          0.00539100   -0.66896403    1.08946300
 C          3.59485602    0.88259298   -1.41907406
 H          3.23750496    2.75724912   -0.39935201
 C          3.52645993   -0.61700398   -1.10591900
 H          2.92327809    1.12149596   -2.25145411
 H          4.61065292    1.15344799   -1.72777104
 H          3.80931902   -1.19362295   -1.99263704
 C          4.47809410   -0.94414002    0.04966300
 H          2.02756691   -2.05720901   -0.47714001
 H          1.40690506   -0.78260398   -1.53003895
 H          4.44670200   -2.01738405    0.26864800
 H          4.73680592   -0.38165700    2.12280607
 H          5.50762606   -0.69543201   -0.23044001
 H         -0.83023202   -0.28185099   -0.16224401
 H         -2.95760989   -3.46502590    1.73238301
 H         -4.29277515   -3.51004004    0.54631197
 H         -4.19596815   -2.18251109    1.73821700
