53
wb97x-d4 ma-def2-tzvp(-f) cpcm(dmso) E: -1515.687123291007, G: -1515.2762991000002
 C         -4.59290409    1.55292797    0.76087302
 C         -3.53383899    0.56596899    0.30841500
 H         -4.10685921    2.49256992    1.03821599
 O         -5.38095093    1.05030501    1.83523095
 H         -5.27977705    1.74688005   -0.06655700
 O         -4.20635223   -0.55313998   -0.27476901
 C         -2.60247898    1.17336094   -0.73966098
 H         -2.95074511    0.23868001    1.17743003
 C         -1.66968405    0.11213000   -1.29065394
 O         -1.85799599    2.28424501   -0.26199400
 H         -3.21283507    1.55385101   -1.56860900
 C         -3.35397792   -1.62788498   -0.60383600
 H         -4.82870102    1.02349699    2.62555909
 O         -0.83377302    0.56030297   -2.28110909
 O         -2.66009903   -2.12403607    0.50297999
 H         -1.26624501    1.96445501    0.43937999
 H         -0.65008903    1.49813795   -2.12010908
 C         -3.50322104   -2.75983500    1.46253204
 C         -2.31527209   -1.20924103   -1.65101099
 H         -4.01257420   -2.39879489   -1.01797295
 H         -2.84968090   -1.05916905   -2.59571409
 O         -1.37194705   -2.23672295   -1.88492799
 H         -1.03096199   -2.51328802   -1.02307105
 C          1.65014100    0.10184700    0.53487802
 C          2.60681200   -0.14605799    1.71192706
 C          4.05615997    0.05318800    1.24738896
 H          2.37568688    0.54570103    2.52898407
 H          2.46926594   -1.16532397    2.08697510
 C          4.37197685   -0.93843597    0.12218500
 C          3.42005110   -0.69402498   -1.05374897
 H          5.41050720   -0.81400102   -0.20375000
 H          4.26198387   -1.96617305    0.48580599
 C          1.97065997   -0.89271802   -0.58867198
 H          1.28321803   -0.73768902   -1.42432404
 H          1.82584000   -1.91401398   -0.22207500
 C          1.84242296    1.53467000    0.02625400
 S         -0.03731800   -0.16664700    1.18186796
 C          4.23908377    1.48652101    0.73665297
 H          4.72522497   -0.12468100    2.09548712
 C          3.29040504    1.73185503   -0.44159701
 H          4.02881718    2.20017600    1.54118705
 H          5.27704382    1.64077997    0.42195401
 H          3.41044807    2.75661802   -0.80763501
 C          3.59982491    0.73915601   -1.56842804
 H          1.15599799    1.72864103   -0.80155098
 H          1.60240901    2.24097705    0.82747900
 H          2.93159890    0.91845101   -2.41826200
 H          3.63562202   -1.40439296   -1.85848403
 H          4.62701893    0.88297999   -1.92130303
 H         -0.84215599   -0.15113600   -0.14597200
 H         -4.16708183   -2.03460193    1.94075894
 H         -2.84843898   -3.20440602    2.21102190
 H         -4.10225916   -3.54245400    0.98437202
