53
wb97x-d4 ma-def2-tzvp(-f) cpcm(dmso) E: -1515.687331044242, G: -1515.2762344300002
 C         -4.23000288    0.70444697    2.13767004
 C         -3.37514901    0.25539899    0.97337902
 H         -4.92773390   -0.10307700    2.38413906
 O         -4.93699789    1.89287901    1.78803599
 H         -3.57760692    0.87945002    2.99841094
 O         -4.24909496   -0.13662100   -0.09032400
 C         -2.40718293    1.34156001    0.48983800
 H         -2.79710698   -0.61210603    1.31212497
 C         -1.70288503    0.88076502   -0.76866001
 O         -1.49647200    1.71187198    1.51086700
 H         -2.97917199    2.24298596    0.24699201
 C         -3.58569407   -0.74749702   -1.17564595
 H         -5.47578192    2.14928508    2.54434395
 O         -0.86860102    1.83865404   -1.28765905
 O         -2.87255692   -1.89044702   -0.80657703
 H         -0.91188198    0.95395899    1.67176402
 H         -0.61201501    1.56425095   -2.18114710
 C         -3.70801210   -2.97654390   -0.40875199
 C         -2.59779000    0.23216601   -1.80605304
 H         -4.37591505   -1.00305104   -1.88965094
 H         -3.18840003    1.03183496   -2.26746202
 O         -1.83888304   -0.34978199   -2.85168409
 H         -1.43973804   -1.15987301   -2.50385094
 C          1.69369304   -0.44613600    0.25737801
 C          1.82139301    0.98572898    0.79029000
 C          3.25125599    1.49782300    0.56592399
 H          1.10704100    1.63368797    0.27831799
 H          1.58037698    0.99830198    1.85866296
 C          4.23789597    0.59445298    1.31429696
 C          4.11556196   -0.84055102    0.78814000
 H          5.26183701    0.95661598    1.17068994
 H          4.02756786    0.61977398    2.38938403
 C          2.68387794   -1.35019100    1.00844598
 H          2.59201789   -2.37953401    0.64626801
 H          2.44513512   -1.34919703    2.07718492
 C          2.02876306   -0.47455901   -1.23929203
 S          0.03077600   -1.13927901    0.56509101
 C          3.57243896    1.47510505   -0.93262303
 H          3.32595110    2.52232909    0.94462299
 C          3.45796800    0.03968200   -1.46115196
 H          2.88024592    2.12980294   -1.47404599
 H          4.58568287    1.85550904   -1.10283697
 H          3.68217301    0.02072600   -2.53256106
 C          4.44258785   -0.86319000   -0.70961398
 H          1.93216801   -1.49872506   -1.61304402
 H          1.31591797    0.14649200   -1.78867996
 H          4.37853479   -1.88801599   -1.09212899
 H          4.80919695   -1.49318898    1.32766700
 H          5.46872807   -0.51535499   -0.87168598
 H         -0.84705800   -0.15515500   -0.25809300
 H         -3.05587292   -3.83563495   -0.25649399
 H         -4.43893909   -3.20267510   -1.19259405
 H         -4.23225403   -2.74515700    0.52237999
