53
wb97x-d4 ma-def2-tzvp(-f) cpcm(dmso) E: -1515.68663228944, G: -1515.2762330500002
 C         -4.51143217    1.58468604    1.01558495
 C         -3.49608898    0.64837402    0.40111500
 H         -3.98152304    2.43055511    1.46300495
 O         -5.24581623    0.86590302    2.00497198
 H         -5.17845011    1.95976698    0.23028500
 O         -4.20925903   -0.32371101   -0.36900601
 C         -2.52674389    1.39047396   -0.52025902
 H         -2.94045496    0.15063000    1.20350099
 C         -1.64334798    0.40097901   -1.25702703
 O         -1.73298001    2.35467505    0.15523601
 H         -3.10948300    1.94715500   -1.26505804
 C         -3.39642191   -1.36116600   -0.87410301
 H         -5.88468504    1.46991301    2.39900899
 O         -0.78828901    0.97328401   -2.16327310
 O         -2.72085595   -2.05870390    0.12961200
 H         -1.15495896    1.87777305    0.77570897
 H         -0.55584401    1.85896695   -1.84668005
 C         -3.58142805   -2.82097602    0.97475499
 C         -2.34349203   -0.80796802   -1.83975399
 H         -4.08239985   -2.02768898   -1.40776205
 H         -2.87195802   -0.47273800   -2.73901200
 O         -1.43980002   -1.81223297   -2.25953603
 H         -1.10085595   -2.24404597   -1.46297395
 C          1.66124594   -0.05441800    0.55453998
 C          1.92830396    1.42138302    0.24359000
 C          3.39045405    1.60697806   -0.18436500
 H          1.26325202    1.76119602   -0.55392802
 H          1.71375704    2.02427506    1.13175595
 C          4.31182480    1.16255903    0.95714599
 C          4.05197906   -0.31459501    1.27594495
 H          5.35968399    1.30261505    0.66983801
 H          4.12928009    1.77579701    1.84671497
 C          2.58767009   -0.49989501    1.69782996
 H          2.39576292   -1.55086505    1.93721402
 H          2.37708712    0.09095100    2.59567690
 C          1.95152700   -0.90974599   -0.68545699
 S         -0.04637100   -0.33189601    1.14228201
 C          3.66858506    0.75520498   -1.42912602
 H          3.56420994    2.66346097   -0.41222700
 C          3.41476202   -0.72249401   -1.10847402
 H          3.02251101    1.07600701   -2.25421095
 H          4.70647287    0.89372998   -1.75142705
 H          3.60816598   -1.33152795   -1.99757695
 C          4.33709812   -1.16452098    0.03269200
 H          1.75487399   -1.96143603   -0.45398900
 H          1.28320801   -0.61661601   -1.49959898
 H          4.17365122   -2.22455597    0.25693801
 H          4.69923401   -0.63398802    2.09899211
 H          5.38481188   -1.04838395   -0.26560301
 H         -0.83098698   -0.08759900   -0.17700200
 H         -4.20663023   -3.49275088    0.37669399
 H         -4.21980095   -2.16703510    1.57465994
 H         -2.93904400   -3.40573096    1.63214099
