53
wb97x-d4 ma-def2-tzvp(-f) cpcm(dmso) E: -1515.687646182348, G: -1515.27604081
 C         -4.24326086    0.73185402    2.11843801
 C         -3.38572311    0.25858200    0.95718801
 H         -4.94826984   -0.06448300    2.36615109
 O         -5.01702118    1.89142299    1.82188797
 H         -3.59948111    0.90420997    2.98464394
 O         -4.26230383   -0.16203400   -0.09283200
 C         -2.42816997    1.33641398    0.44112900
 H         -2.80166888   -0.59817803    1.31376505
 C         -1.71861696    0.84600902   -0.80240297
 O         -1.52575898    1.75247502    1.45158803
 H         -3.00745702    2.22419190    0.16196699
 C         -3.60155702   -0.79257500   -1.16883397
 H         -4.47028208    2.67059112    1.97078300
 O         -0.88480502    1.79242206   -1.34239197
 O         -2.88630009   -1.92784798   -0.78101701
 H         -0.94007701    1.00396001    1.64848197
 H         -0.62493998    1.49662006   -2.22803211
 C         -3.71921897   -3.00868607   -0.36411101
 C         -2.61573291    0.17432100   -1.82301497
 H         -4.39390278   -1.06234002   -1.87522101
 H         -3.20829892    0.96378201   -2.29945397
 O         -1.85981500   -0.42921400   -2.85834694
 H         -1.46114194   -1.23286998   -2.49541712
 C          1.67396295   -0.44365001    0.28498200
 C          1.79227197    1.00051105    0.78524101
 C          3.22230697    1.51226795    0.56173301
 H          1.08026099    1.63385701    0.25203401
 H          1.54196703    1.03684294    1.85095894
 C          4.20451403    0.63056701    1.34119701
 C          4.09184885   -0.81705701    0.84859902
 H          5.22865486    0.99263501    1.19875503
 H          3.98373008    0.68087900    2.41330099
 C          2.65963292   -1.32601500    1.06731606
 H          2.57460499   -2.36412311    0.72928602
 H          2.41045094   -1.29991102    2.13335609
 C          2.02344704   -0.50781202   -1.20736694
 S          0.01022400   -1.13329005    0.59480202
 C          3.55761600    1.45451796   -0.93275398
 H          3.29009295    2.54586005    0.91628301
 C          3.45307302    0.00639700   -1.42764103
 H          2.86828208    2.09343195   -1.49620104
 H          4.57107878    1.83439398   -1.10273194
 H          3.68801689   -0.03746400   -2.49601102
 C          4.43331385   -0.87460297   -0.64494199
 H          1.93447602   -1.54150295   -1.55586302
 H          1.31373000    0.09628500   -1.77930999
 H          4.37633085   -1.90857005   -1.00313902
 H          4.78223801   -1.45415699    1.41035295
 H          5.45981503   -0.52714300   -0.80557001
 H         -0.86351800   -0.17572901   -0.26346800
 H         -4.24017096   -2.76413703    0.56548899
 H         -3.06567907   -3.86488104   -0.20178799
 H         -4.45276594   -3.24703002   -1.14185202
