53
wb97x-d4 ma-def2-tzvp(-f) cpcm(dmso) E: -1515.686444742357, G: -1515.27561358
 C         -4.45218706    1.59055102    1.09907401
 C         -3.43887591    0.58610702    0.58194900
 H         -5.06885099    1.10148501    1.86107004
 O         -5.26794004    2.13339591    0.06541400
 H         -3.92600799    2.42662692    1.56020606
 O         -4.19107819   -0.48649099    0.00451000
 C         -2.48391390    1.19143105   -0.45294300
 H         -2.85781193    0.21833800    1.43568504
 C         -1.66644299    0.10199500   -1.11342502
 O         -1.67499101    2.19989800    0.12722000
 H         -3.07596707    1.68366003   -1.23212004
 C         -3.39952898   -1.58294499   -0.41571099
 H         -5.76023197    1.40418303   -0.33082801
 O         -0.84825301    0.58153999   -2.10423899
 O         -2.64962292   -2.13055491    0.62029499
 H         -1.05486596    1.76373100    0.73461998
 H         -0.53559101   -0.17615201   -2.62230897
 C         -3.44768691   -2.73429990    1.63647401
 C         -2.46375608   -1.11207902   -1.52962697
 H         -4.11600590   -2.31645989   -0.80326700
 H         -3.11214089   -0.79546499   -2.35814905
 O         -1.55302095   -2.10166502   -1.98045802
 H         -1.98534799   -2.63258195   -2.65991902
 C          1.70907199    0.00263600    0.56884903
 C          2.70645094   -0.11637800    1.73269701
 C          4.12341118    0.20002200    1.23077905
 H          2.42600393    0.57933801    2.53050804
 H          2.67288804   -1.13001895    2.14566994
 C          4.50890779   -0.79277599    0.12824500
 C          3.51729894   -0.67338902   -1.03440499
 H          5.52557278   -0.58398002   -0.22256400
 H          4.50036192   -1.81462002    0.52379102
 C          2.10448003   -0.99241602   -0.52891201
 H          1.38949895   -0.93779200   -1.35442603
 H          2.06686902   -2.00922489   -0.12539700
 C          1.75641000    1.43315804    0.01931900
 S          0.06505000   -0.41059601    1.24990499
 C          4.16506481    1.62616801    0.67176902
 H          4.82160521    0.11023900    2.06919503
 C          3.17071104    1.74629200   -0.48804700
 H          3.91080594    2.34536695    1.45843399
 H          5.17755413    1.86062098    0.32509500
 H          3.18839312    2.76600599   -0.88639599
 C          3.54870009    0.75334299   -1.59347403
 H          1.03446305    1.54108500   -0.79261601
 H          1.47664106    2.13496709    0.81220901
 H          2.84898400    0.84211200   -2.43228793
 H          3.78354096   -1.38553703   -1.82224500
 H          4.54980612    0.98301101   -1.97493804
 H         -0.80091900   -0.30557501   -0.03724500
 H         -4.03204584   -1.98432398    2.17678189
 H         -2.76032495   -3.22469211    2.32504511
 H         -4.12512922   -3.47729397    1.20113897
