53
wb97x-d4 ma-def2-tzvp(-f) cpcm(dmso) E: -1515.686478013278, G: -1515.27560184
 C         -4.43327808    1.59881997    1.13665295
 C         -3.42877603    0.59207702    0.60590398
 H         -5.05458307    1.10568094    1.89224899
 O         -5.24338293    2.16003108    0.10831500
 H         -3.90048695    2.42490196    1.60816395
 O         -4.19237089   -0.46324399    0.01183800
 C         -2.46779609    1.20457804   -0.41903999
 H         -2.85149407    0.20497300    1.45356596
 C         -1.66579103    0.11898600   -1.10395300
 O         -1.64484501    2.19021106    0.18053100
 H         -3.05474591    1.72067797   -1.18654001
 C         -3.41304588   -1.56038594   -0.42845100
 H         -5.73688507    1.43839204   -0.30014500
 O         -0.84764600    0.60856199   -2.09001207
 O         -2.66715193   -2.13331509    0.59680802
 H         -1.03180695    1.73356497    0.77997702
 H         -0.54444700   -0.14233400   -2.62327099
 C         -3.47105789   -2.74991393    1.60071003
 C         -2.47530103   -1.08087695   -1.53698695
 H         -4.13777781   -2.28001308   -0.82660002
 H         -3.12251210   -0.74661702   -2.35953593
 O         -1.57394302   -2.07160902   -2.00400400
 H         -2.01531506   -2.59481907   -2.68353200
 C          1.71327496   -0.02783600    0.55995798
 C          2.71782708   -0.18738200    1.71240997
 C          4.13086796    0.14983800    1.21356106
 H          2.44133401    0.47756100    2.53743005
 H          2.68854809   -1.21578205    2.08744192
 C          4.51203012   -0.80179203    0.07397200
 C          3.51270509   -0.64363199   -1.07719302
 H          5.52575779   -0.57718003   -0.27557099
 H          4.50924301   -1.83714902    0.43276700
 C          2.10332298   -0.98281997   -0.57488698
 H          1.38340998   -0.89951998   -1.39356697
 H          2.06952500   -2.01354408   -0.20795700
 C          1.75523305    1.42093003    0.06036700
 S          0.07336400   -0.46490601    1.23662806
 C          4.16702414    1.59510100    0.70562702
 H          4.83422709    0.03158900    2.04413605
 C          3.16580105    1.75479305   -0.44350001
 H          3.91668200    2.28540993    1.51901805
 H          5.17714214    1.84341300    0.36172700
 H          3.17942095    2.78796601   -0.80565298
 C          3.53811312    0.80207700   -1.58556294
 H          1.02885401    1.55511403   -0.74360502
 H          1.47815394    2.09419489    0.87862200
 H          2.83237791    0.91890502   -2.41585493
 H          3.77503109   -1.32684004   -1.89155495
 H          4.53620005    1.04686296   -1.96552300
 H         -0.79829901   -0.31971499   -0.04126500
 H         -4.15614080   -3.47659206    1.15000200
 H         -4.04774189   -2.00554705    2.15679789
 H         -2.78883505   -3.26184392    2.27858210
