53
wb97x-d4 ma-def2-tzvp(-f) cpcm(dmso) E: -1515.686046582007, G: -1515.27558199
 C         -4.38018990    1.64549303    1.02029705
 C         -3.42086601    0.57338399    0.53718102
 H         -4.97215605    1.23647106    1.84632504
 O         -5.22898483    2.13508701   -0.01277900
 H         -3.80771589    2.49649811    1.39081800
 O         -4.22018719   -0.51871902    0.07211200
 C         -2.51266789    1.05321503   -0.59341002
 H         -2.80860996    0.25542301    1.38889503
 C         -1.73410702   -0.10583700   -1.18415499
 O         -1.63898897    2.09390306   -0.18380700
 H         -3.13730097    1.47778904   -1.38704801
 C         -3.47155690   -1.67017102   -0.27301201
 H         -5.76921415    1.39762998   -0.32172501
 O         -0.96088302    0.21692500   -2.27250910
 O         -2.70981407   -2.14540911    0.79172802
 H         -1.06093705    1.73444700    0.50903702
 H         -0.63242602    1.12126803   -2.16229892
 C         -3.50039411   -2.65378189    1.86468899
 C         -2.54856396   -1.35068405   -1.44869804
 H         -4.21699905   -2.41356611   -0.57536101
 H         -3.20693111   -1.12328994   -2.29924989
 O         -1.75152695   -2.48503995   -1.74043906
 H         -1.36609197   -2.36161590   -2.61595106
 C          1.71177197   -0.02730700    0.50191897
 C          2.71886110   -0.35762000    1.61596203
 C          4.13831806   -0.00520400    1.15036404
 H          2.46861911    0.20696300    2.52062511
 H          2.65721703   -1.42297697    1.86072695
 C          4.48367691   -0.81929898   -0.10182100
 C          3.48189807   -0.49183199   -1.21426105
 H          5.50084877   -0.58080900   -0.43165699
 H          4.45405006   -1.89066899    0.12619101
 C          2.06341791   -0.84702802   -0.74667102
 H          1.34185100   -0.63686597   -1.54035103
 H          1.99928701   -1.91391206   -0.51012099
 C          1.79881597    1.46830106    0.17917299
 S          0.06793100   -0.49320799    1.15377700
 C          4.21580505    1.49066806    0.82503903
 H          4.84226799   -0.24596000    1.95349503
 C          3.21669102    1.82059300   -0.28943700
 H          3.98925996    2.08160090    1.71964502
 H          5.23167610    1.75048196    0.50792003
 H          3.25991702    2.88965607   -0.52119797
 C          3.55371308    1.00460100   -1.54210997
 H          1.07920694    1.72473598   -0.60264200
 H          1.53902900    2.04802990    1.07115495
 H          2.84936404    1.24611294   -2.34616208
 H          3.71813798   -1.07740903   -2.10878301
 H          4.55820084    1.26146400   -1.89614904
 H         -0.81244302   -0.42034000   -0.11586800
 H         -2.81061912   -3.10865593    2.57471609
 H         -4.20207119   -3.41093802    1.49767995
 H         -4.05757380   -1.85259402    2.35820198
