53
wb97x-d4 ma-def2-tzvp(-f) cpcm(dmso) E: -1515.687483189869, G: -1515.27557058
 C         -4.62402296    1.43741298    0.94876999
 C         -3.55338001    0.48714399    0.42388800
 H         -5.12873507    1.91988599    0.10203200
 O         -4.09241819    2.40595388    1.84479702
 H         -5.36278009    0.85641402    1.50392103
 O         -4.24810696   -0.56785399   -0.24362101
 C         -2.59693503    1.17854202   -0.55485702
 H         -2.98584604    0.08836400    1.27194095
 C         -1.69534302    0.15898100   -1.21254897
 O         -1.86399102    2.21788907    0.08503600
 H         -3.19027495    1.66458297   -1.33920395
 C         -3.40822411   -1.61712599   -0.68128002
 H         -3.32302189    2.80042100    1.40877199
 O         -0.85988599    0.71831203   -2.14437008
 O         -2.69317698   -2.21128511    0.35838100
 H         -1.21384704    1.79794598    0.67492598
 H         -0.47166201    0.00625000   -2.67477012
 C         -3.51666808   -2.92491007    1.28013301
 C         -2.39867401   -1.09248996   -1.70049000
 H         -4.08048010   -2.34327292   -1.15051603
 H         -2.96359611   -0.81398702   -2.59745002
 O         -1.46842802   -2.07768202   -2.11176491
 H         -1.07127702   -2.45454311   -1.31363499
 C          1.61724102    0.03662900    0.57980400
 C          2.58131504   -0.10618400    1.76845801
 C          4.01738310    0.17204300    1.29996300
 H          2.30014801    0.59852999    2.55803800
 H          2.51093102   -1.11777699    2.18162608
 C          4.40407419   -0.83414298    0.20995700
 C          3.44392395   -0.69419497   -0.97672302
 H          5.43361998   -0.65160102   -0.11700900
 H          4.36103487   -1.85410702    0.60802400
 C          2.01156497   -0.97417998   -0.50405002
 H          1.31831706   -0.90604597   -1.34695494
 H          1.93745399   -1.98759604   -0.09705100
 C          1.71501696    1.46340203    0.02763100
 S         -0.05508300   -0.32635501    1.21946895
 C          4.11001682    1.59485304    0.73815697
 H          4.69252682    0.06728400    2.15533996
 C          3.14867401    1.73681104   -0.44696999
 H          3.85433793    2.32300806    1.51603305
 H          5.13684320    1.80184305    0.41717699
 H          3.20329905    2.75396800   -0.84833300
 C          3.52587199    0.72921300   -1.53963900
 H          1.01497304    1.58750296   -0.80106997
 H          1.43554497    2.17456293    0.81208599
 H          2.84806800    0.83292103   -2.39454389
 H          3.71013904   -1.41618896   -1.75545204
 H          4.54112577    0.93062001   -1.89899802
 H         -0.86566103   -0.23378301   -0.10040800
 H         -4.13241911   -3.65990496    0.75073999
 H         -4.16322422   -2.24077201    1.83614397
 H         -2.84628510   -3.43530703    1.97046697
