53
wb97x-d4 ma-def2-tzvp(-f) cpcm(dmso) E: -1515.686291320942, G: -1515.27531569
 C         -4.44015884    1.66433299    0.96916300
 C         -3.43244195    0.65450799    0.45739400
 H         -3.91475606    2.51014709    1.41222703
 O         -5.26588583    1.10664594    1.98619795
 H         -5.04752111    2.02654004    0.13032600
 O         -4.19197798   -0.39315701   -0.15538500
 C         -2.46160412    1.27020395   -0.55469900
 H         -2.86678910    0.25179100    1.30463898
 C         -1.64120901    0.17496400   -1.20549095
 O         -1.65248597    2.26738310    0.04363400
 H         -3.03749108    1.77281594   -1.34192598
 C         -3.40894794   -1.50206399   -0.56067902
 H         -5.70676613    0.33557200    1.60839200
 O         -0.79774398    0.65339601   -2.17480397
 O         -2.70136809   -2.07525992    0.49077401
 H         -1.04837894    1.82149398    0.66052401
 H         -0.47147000   -0.10417400   -2.68463492
 C         -3.54525709   -2.67156100    1.47434497
 C         -2.43555403   -1.03450704   -1.64447105
 H         -4.12716103   -2.21777105   -0.97742802
 H         -3.05714393   -0.71258801   -2.49127412
 O         -1.51806295   -2.02894592   -2.06950498
 H         -1.93728399   -2.56362009   -2.75426793
 C          1.69150305    0.01172000    0.56139499
 C          2.65101910   -0.10397900    1.75697899
 C          4.08713722    0.18155800    1.29312897
 H          2.35787606    0.60956103    2.53415990
 H          2.58839393   -1.10983396    2.18540096
 C          4.48884821   -0.83518100    0.21831501
 C          3.53458309   -0.71919799   -0.97586501
 H          5.51880312   -0.64818001   -0.10488500
 H          4.45200396   -1.85018694    0.62954199
 C          2.10213995   -1.00709498   -0.50826001
 H          1.41243303   -0.95430601   -1.35547698
 H          2.03563499   -2.01654410   -0.09022400
 C          1.77874196    1.43237901   -0.00879800
 S          0.02158000   -0.36258000    1.19958997
 C          4.16893005    1.59762704    0.71314400
 H          4.75854206    0.09434600    2.15341997
 C          3.21239305    1.71446204   -0.47848800
 H          3.90199089    2.33342290    1.47998595
 H          5.19529486    1.81061804    0.39459300
 H          3.25874996    2.72703695   -0.89239103
 C          3.60643911    0.69741601   -1.55633199
 H          1.08274996    1.53867304   -0.84314400
 H          1.48767996    2.15111303    0.76458502
 H          2.93303895    0.78365898   -2.41664004
 H          3.81276608   -1.44859505   -1.74350095
 H          4.62191582    0.90440601   -1.91195202
 H         -0.80731100   -0.24519400   -0.11247300
 H         -4.12482691   -1.91354203    2.00861406
 H         -2.89225698   -3.19074512    2.17503905
 H         -4.22933292   -3.38898301    1.00748706
