53
wb97x-d4 ma-def2-tzvp(-f) cpcm(dmso) E: -1515.688307921206, G: -1515.2777171500002
 C         -4.56411982    1.48028004   -0.44011399
 C         -3.49707794    0.45677701   -0.10658300
 H         -4.08779716    2.41795802   -0.72765499
 O         -5.39059687    1.76020706    0.68436599
 H         -5.16388416    1.11761498   -1.28399098
 O         -4.18048191   -0.76576000    0.18787900
 C         -2.53706598    0.22433101   -1.26865995
 H         -2.94013095    0.79189199    0.77499199
 C         -1.62963498   -0.95859200   -0.98658699
 O         -1.77318394    1.37872195   -1.58906996
 H         -3.12165904   -0.00716700   -2.16782689
 C         -3.33309388   -1.78448403    0.67774397
 H         -5.80041409    0.92967302    0.95585102
 O         -0.80927300   -1.29993498   -2.03198600
 O         -2.64651489   -1.40142596    1.83115995
 H         -1.23738205    1.60471904   -0.81252003
 H         -0.57157701   -0.49219501   -2.51128793
 C         -3.49555612   -1.20365000    2.96078205
 C         -2.28970504   -2.17737198   -0.37650201
 H         -3.99467301   -2.63158989    0.88740098
 H         -2.82060099   -2.69871807   -1.18034506
 O         -1.34914696   -3.09871101    0.14307100
 H         -0.98062998   -2.70730901    0.94765598
 C          1.67968500    0.37085500    0.38318601
 C          2.14816308   -0.99165398   -0.13897701
 C          3.56540895   -0.86351198   -0.71511102
 H          2.13772607   -1.71700203    0.68095398
 H          1.45929694   -1.34939396   -0.90798098
 C          3.56661797    0.15897401   -1.85845697
 C          3.11333990    1.52459002   -1.32692599
 H          4.57231092    0.23910800   -2.28556705
 H          2.89469004   -0.17265300   -2.65819407
 C          1.69440699    1.39655805   -0.75728899
 H          1.34675598    2.36388707   -0.38010901
 H          1.00781095    1.08268499   -1.54844904
 C          2.64080906    0.84381998    1.48699403
 S          0.03261700    0.25317901    1.16688299
 C          4.52187586   -0.39583799    0.38789299
 H          3.88524103   -1.83989298   -1.09322202
 C          4.06170702    0.96710300    0.91854101
 H          4.54069614   -1.12797594    1.20296204
 H          5.54049301   -0.31684101   -0.00776900
 H          4.73316717    1.29881597    1.71703601
 C          4.06894207    1.98935997   -0.22304299
 H          2.30779004    1.81164706    1.87702596
 H          2.62806797    0.12816700    2.31551695
 H          3.76119089    2.97209096    0.15141600
 H          3.10595489    2.25484204   -2.14242506
 H          5.08281517    2.09288597   -0.62507898
 H         -0.78463602   -0.44795999    0.04426000
 H         -2.84433198   -1.02744496    3.81595802
 H         -4.10645294   -2.09497309    3.13925409
 H         -4.14795303   -0.33868900    2.81294608
