53
wb97x-d4 ma-def2-tzvp(-f) cpcm(dmso) E: -1515.685809591922, G: -1515.27513216
 C         -3.26018500    2.58070993    0.88204002
 C         -2.69883800    1.28451300    0.32499599
 H         -3.08013296    2.60341692    1.96238506
 O         -4.64547586    2.74653006    0.59976000
 H         -2.73907089    3.42269397    0.42482001
 O         -3.42677808    0.22455101    0.95486498
 C         -2.85398507    1.17522395   -1.18958402
 H         -1.63911796    1.22503698    0.59174699
 C         -2.52158499   -0.21879500   -1.67730105
 O         -2.09468603    2.15047503   -1.89139998
 H         -3.90093899    1.37505901   -1.44435203
 C         -2.96867299   -1.07075405    0.63283700
 H         -5.11872721    2.02350307    1.02899897
 O         -2.71788502   -0.40264899   -3.02333808
 O         -1.62709606   -1.26630199    0.96871299
 H         -1.15475094    1.93457401   -1.79461896
 H         -2.53020692    0.43345201   -3.47628689
 C         -1.39177704   -1.27888095    2.37606597
 C         -3.10809112   -1.35092294   -0.86540800
 H         -3.60898304   -1.75030196    1.20471704
 H         -4.17885113   -1.39849198   -1.09256995
 O         -2.57193804   -2.61410904   -1.20950401
 H         -1.66492403   -2.64267802   -0.87427098
 C          1.57548797   -0.28799099   -0.99028701
 C          1.71702397   -1.61926401   -0.24549800
 C          2.86323690   -1.52158594    0.77269900
 H          0.77591902   -1.85669005    0.25748500
 H          1.92216098   -2.41862106   -0.96469700
 C          4.17188120   -1.22092605    0.03399700
 C          4.04087019    0.11097500   -0.71414500
 H          5.00135803   -1.16762495    0.74771500
 H          4.39747620   -2.02677202   -0.67337102
 C          2.89110994    0.02099200   -1.72612906
 H          2.79402399    0.96705598   -2.26830912
 H          3.09692907   -0.76510203   -2.46050811
 C          1.28776002    0.83140302    0.01579900
 S          0.29910100   -0.37346500   -2.29294991
 C          2.57732105   -0.39544201    1.77313697
 H          2.94928694   -2.47485089    1.30438495
 C          2.44146109    0.93510097    1.02361298
 H          1.65781295   -0.60616797    2.32769394
 H          3.39232111   -0.33177701    2.50264192
 H          2.22182703    1.73898900    1.73351896
 C          3.74827504    1.23780596    0.28286299
 H          1.15788305    1.78023195   -0.51498199
 H          0.35666800    0.60865301    0.54246402
 H          3.66852689    2.19425607   -0.24576700
 H          4.96935701    0.32536200   -1.25300503
 H          4.57242918    1.32498896    0.99939901
 H         -1.08439696   -0.32818300   -1.57561195
 H         -0.37615100   -1.64203501    2.52391100
 H         -2.09784389   -1.95137501    2.87428403
 H         -1.48641300   -0.27378801    2.79634190
