53
wb97x-d4 ma-def2-tzvp(-f) cpcm(dmso) E: -1515.685802081952, G: -1515.2749965
 C         -3.35622907    2.42644501    0.92821997
 C         -2.74557805    1.16886795    0.33569199
 H         -3.18909311    2.41884398    2.01083994
 O         -4.74303293    2.55724502    0.63478601
 H         -2.85789204    3.29966998    0.50554502
 O         -3.43760204    0.06395300    0.92792100
 C         -2.88770008    1.10013497   -1.18251300
 H         -1.68615305    1.14000404    0.60834199
 C         -2.49487996   -0.26348400   -1.70954204
 O         -2.16770506    2.12825608   -1.84930694
 H         -3.94093895    1.26272905   -1.43780196
 C         -2.93129301   -1.20366299    0.56871098
 H         -5.19802999    1.80676401    1.03574002
 O         -2.67073393   -0.41341001   -3.06256604
 O         -1.58645499   -1.36362696    0.91077501
 H         -1.21990299    1.95480394   -1.74685705
 H         -2.50430202    0.44132599   -3.48838496
 C         -1.36284196   -1.41943300    2.31897807
 C         -3.04790092   -1.44053197   -0.93892998
 H         -3.55216098   -1.92333806    1.11228597
 H         -4.11434078   -1.51823699   -1.17803395
 O         -2.46457505   -2.67268610   -1.31669295
 H         -1.56165004   -2.68100095   -0.96957999
 C          1.59445095   -0.20257600   -0.98296303
 C          1.78428602   -1.54558504   -0.27003101
 C          2.91489792   -1.42660296    0.76299399
 H          0.84908998   -1.83485603    0.21647100
 H          2.03039098   -2.31664109   -1.00705004
 C          4.21789503   -1.05312705    0.04748100
 C          4.03920984    0.29027501   -0.66898000
 H          5.03665304   -0.98350698    0.77206999
 H          4.48458385   -1.83099496   -0.67673099
 C          2.90420008    0.17810100   -1.69550800
 H          2.77412510    1.13205695   -2.21660805
 H          3.14957094   -0.58122998   -2.44569206
 C          1.24997199    0.87715203    0.04788800
 S          0.33559901   -0.30788901   -2.30121589
 C          2.57080507   -0.34007400    1.78851902
 H          3.03548098   -2.38908911    1.27087402
 C          2.38835907    1.00225306    1.07061899
 H          1.65471101   -0.60324800    2.32608390
 H          3.37407207   -0.26137200    2.52949691
 H          2.12874007    1.77837706    1.79777300
 C          3.68959093    1.37753201    0.35317501
 H          1.08516395    1.83341801   -0.45943800
 H          0.32426000    0.60162902    0.55873197
 H          3.57578397    2.34347892   -0.15149400
 H          4.96316385    0.55685300   -1.19207203
 H          4.50146914    1.47984803    1.08159399
 H         -1.05423903   -0.32371300   -1.59703803
 H         -1.50306594   -0.43575001    2.77556491
 H         -0.33408299   -1.74509299    2.46338296
 H         -2.04414797   -2.13926005    2.78447700
