53
wb97x-d4 ma-def2-tzvp(-f) cpcm(dmso) E: -1515.686988265528, G: -1515.2747780500001
 C         -4.62265682    0.84143400    1.70535803
 C         -3.55647898    0.33601499    0.74102700
 H         -5.14648581    1.69333899    1.25389504
 O         -4.07848787    1.18923998    2.97290802
 H         -5.34658718    0.04246000    1.87535501
 O         -4.25376987   -0.18525100   -0.39144799
 C         -2.62444901    1.45164502    0.26692501
 H         -2.97928691   -0.45666301    1.22947299
 C         -1.70628202    0.94982702   -0.82763398
 O         -1.87525797    2.04080510    1.32624304
 H         -3.24028301    2.25971794   -0.14781700
 C         -3.41782403   -0.82610703   -1.33488095
 H         -3.35217810    1.80768597    2.81224108
 O         -0.86317199    1.89823306   -1.34469295
 O         -2.71580291   -1.90097404   -0.78784102
 H         -1.23711801    1.37545204    1.64095294
 H         -0.65701801    2.53879499   -0.64764303
 C         -3.54582691   -3.00919795   -0.44258201
 C         -2.38846898    0.15036300   -1.91614997
 H         -4.09372282   -1.17090702   -2.12440896
 H         -2.93626094    0.86359799   -2.54218292
 O         -1.47516298   -0.50870597   -2.77048302
 H         -1.11622500   -1.26163399   -2.28067398
 C          1.61914098   -0.29598600    0.48698899
 C          1.96429002    1.15305805    0.84897900
 C          3.41793394    1.45281398    0.45703501
 H          1.29043102    1.83738005    0.32765299
 H          1.82245398    1.30291104    1.92387605
 C          4.35412693    0.50938499    1.21997499
 C          4.01592302   -0.94275099    0.86452901
 H          5.39618111    0.72397399    0.95856500
 H          4.24629402    0.66614997    2.29899597
 C          2.56065512   -1.24011695    1.25148702
 H          2.31248689   -2.27890992    1.01093698
 H          2.42323089   -1.10455704    2.32957911
 C          1.80513799   -0.51062697   -1.02039504
 S         -0.07928000   -0.73644602    0.99885201
 C          3.59325695    1.24064195   -1.05084395
 H          3.64996195    2.49133110    0.71403998
 C          3.26002097   -0.21245700   -1.40742004
 H          2.93559790    1.92108405   -1.60340297
 H          4.62397289    1.46991396   -1.34290195
 H          3.37963510   -0.36536101   -2.48487210
 C          4.19542313   -1.15623701   -0.64312202
 H          1.54841101   -1.54392695   -1.27560604
 H          1.12788796    0.14653499   -1.57173002
 H          3.97243595   -2.19683194   -0.90428001
 H          4.67388201   -1.62250304    1.41517997
 H          5.23586512   -0.96263200   -0.92637700
 H         -0.88242501    0.03125500   -0.07951900
 H         -2.88111496   -3.81662893   -0.13823500
 H         -4.13845110   -3.32587790   -1.30754197
 H         -4.21455479   -2.75375891    0.38363799
