53
wb97x-d4 ma-def2-tzvp(-f) cpcm(dmso) E: -1515.685181952597, G: -1515.27469463
 C         -4.87301016    0.40890399    1.62181795
 C         -3.59276295    0.29095799    0.81425202
 H         -5.17039394   -0.59354001    1.94888902
 O         -5.92540598    1.03495502    0.89460498
 H         -4.68815899    1.02237904    2.50369906
 O         -3.90134597   -0.54685700   -0.30644801
 C         -3.07700610    1.63954997    0.31586400
 H         -2.82751107   -0.18188199    1.43965006
 C         -1.89506698    1.42614305   -0.60408401
 O         -2.75590110    2.43286800    1.44627500
 H         -3.87137389    2.12023497   -0.27248499
 C         -2.79988098   -0.86233097   -1.12986195
 H         -6.11964703    0.48260701    0.12765899
 O         -1.39504397    2.62145090   -1.06625998
 O         -1.79585695   -1.55929601   -0.45604801
 H         -2.41349602    3.27853799    1.13268697
 H         -0.78613698    2.44189191   -1.79749501
 C         -2.16703510   -2.88758612   -0.09098000
 C         -2.17187095    0.40977600   -1.69497502
 H         -3.21362996   -1.47347105   -1.93929601
 H         -2.90793991    0.86186397   -2.37010789
 O         -1.02675295    0.14181000   -2.48245907
 H         -0.47816300   -0.48339400   -1.98921096
 C          1.64721096    0.30303499    0.71425498
 C          1.97208798    1.14807403   -0.52305901
 C          3.31692410    0.70852399   -1.11679602
 H          1.18300998    1.03026199   -1.27035701
 H          2.00815201    2.20527196   -0.24196500
 C          4.42268515    0.90542901   -0.07450300
 C          4.10981417    0.05953300    1.16449594
 H          5.39045477    0.60881197   -0.49371901
 H          4.49369383    1.96343994    0.20190500
 C          2.76192808    0.49884999    1.75673699
 H          2.53604293   -0.08912200    2.65287805
 H          2.80822301    1.55202997    2.05198002
 C          1.58996499   -1.18007398    0.32866201
 S          0.10012900    0.85891998    1.50967705
 C          3.23924494   -0.77076900   -1.51114202
 H          3.53021502    1.31658900   -2.00202990
 C          2.93290901   -1.61629999   -0.27041501
 H          2.45771003   -0.91558999   -2.26600289
 H          4.18867397   -1.08933604   -1.95548904
 H          2.87242293   -2.67323208   -0.55016297
 C          4.04115915   -1.41977894    0.76948500
 H          1.36155105   -1.77564001    1.21852803
 H          0.78227901   -1.34814203   -0.38734299
 H          3.84028101   -2.03588605    1.65312505
 H          4.88957787    0.20621100    1.91882300
 H          5.00412512   -1.73995304    0.35659701
 H         -0.88478398    0.94490302    0.30605400
 H         -2.50502706   -3.44557810   -0.97077501
 H         -2.96033812   -2.87659311    0.66116500
 H         -1.27693200   -3.35946608    0.32370299
