53
wb97x-d4 ma-def2-tzvp(-f) cpcm(dmso) E: -1515.685701316638, G: -1515.2746516900002
 C         -4.36272287    1.55400598    1.41071904
 C         -3.41974711    0.62843400    0.66408497
 H         -5.02577114    0.94610602    2.03588891
 O         -5.11798096    2.39068604    0.54089999
 H         -3.78126788    2.21197200    2.05758905
 O         -4.23349380   -0.21456300   -0.15753999
 C         -2.42688704    1.38499105   -0.21626900
 H         -2.87507892    0.02661300    1.40052700
 C         -1.66228998    0.44469500   -1.12726605
 O         -1.53480804    2.18693209    0.54457200
 H         -2.98655605    2.07983589   -0.85207403
 C         -3.50512099   -1.23009002   -0.82416999
 H         -5.66839314    1.82033396   -0.00904100
 O         -0.82334900    1.07901502   -2.00970292
 O         -2.81401110   -2.05239105    0.06116900
 H         -1.00169301    1.59187496    1.09618998
 H         -0.48982000    1.88461697   -1.58734906
 C         -3.67202401   -2.82636189    0.89665997
 C         -2.51007104   -0.59928900   -1.80867195
 H         -4.26036596   -1.80429804   -1.37352204
 H         -3.11228991   -0.07587200   -2.56446195
 O         -1.67242002   -1.55805695   -2.42745304
 H         -2.17678905   -1.99334097   -3.12451792
 C          1.70827305   -0.30583701    0.49076000
 C          1.90050805    1.21042597    0.62302101
 C          3.34836292    1.58620596    0.28031600
 H          1.21696103    1.73252594   -0.05158100
 H          1.65871000    1.52056098    1.64481497
 C          4.29992580    0.87573898    1.24909198
 C          4.11725187   -0.64118898    1.12195802
 H          5.33698797    1.14732504    1.02312601
 H          4.09369516    1.19344294    2.27731991
 C          2.66746902   -1.01433897    1.46103203
 H          2.53165197   -2.09796500    1.38391805
 H          2.43481112   -0.72085601    2.49031806
 C          2.03143811   -0.74223799   -0.94313598
 S          0.02294600   -0.82280600    0.97398400
 C          3.65816402    1.15034294   -1.15676403
 H          3.46715593    2.67059588    0.37244800
 C          3.48037100   -0.36658001   -1.28329301
 H          2.98901510    1.66498494   -1.85565805
 H          4.68479586    1.42946398   -1.41845596
 H          3.69783306   -0.67949098   -2.30965805
 C          4.43169594   -1.07694900   -0.31375501
 H          1.89030397   -1.82400000   -1.03372395
 H          1.34285605   -0.25668800   -1.63926601
 H          4.32001114   -2.16285896   -0.40845400
 H          4.78654385   -1.15411496    1.82001603
 H          5.47042990   -0.83035803   -0.55995798
 H         -0.81640601   -0.26198199   -0.20464499
 H         -3.03286910   -3.50809908    1.45682096
 H         -4.38074017   -3.40100789    0.28986800
 H         -4.22518587   -2.19010592    1.59327400
