53
wb97x-d4 ma-def2-tzvp(-f) cpcm(dmso) E: -1515.686173948478, G: -1515.27459847
 C         -3.82069802    0.64915299    2.49948907
 C         -3.12684894    0.11613500    1.26186097
 H         -4.23555899   -0.19510300    3.06095505
 O         -4.83641481    1.60087705    2.20008802
 H         -3.08040905    1.15638900    3.12029696
 O         -4.12397003   -0.53592497    0.46682000
 C         -2.46991992    1.21648502    0.43651399
 H         -2.36400795   -0.60394102    1.57694304
 C         -1.92088997    0.63255203   -0.83866799
 O         -1.46480405    1.82746899    1.22869205
 H         -3.23794508    1.95395100    0.16295999
 C         -3.61310101   -1.22406900   -0.65809101
 H         -5.51180792    1.15343106    1.67621899
 O         -1.32180297    1.59649503   -1.61260498
 O         -2.71107697   -2.22820210   -0.30892399
 H         -1.04966700    2.52215695    0.70352900
 H         -1.13547397    1.21934295   -2.48556209
 C         -3.31334805   -3.31609297    0.39030099
 C         -2.89052391   -0.25285900   -1.59532297
 H         -4.49109888   -1.65110397   -1.15460300
 H         -3.65340900    0.39765999   -2.03768992
 O         -2.25188398   -0.90499502   -2.67774391
 H         -1.61331403   -1.53033304   -2.30274105
 C          1.72738397   -0.42822301   -0.18426700
 C          1.83114195    0.44573700    1.07125497
 C          3.17653394    1.18166900    1.08799303
 H          1.00718200    1.16372705    1.08205605
 H          1.73220396   -0.18435800    1.96111298
 C          4.31426287    0.15563500    1.09484899
 C          4.22111988   -0.71781701   -0.16170099
 H          5.28255510    0.66780698    1.12051105
 H          4.24890804   -0.46983501    1.99220204
 C          2.87183905   -1.45333004   -0.18060701
 H          2.80107188   -2.08596492   -1.07132697
 H          2.78611588   -2.10226011    0.69762701
 C          1.85210097    0.45311299   -1.43265200
 S          0.17497900   -1.38766098   -0.18170400
 C          3.28233194    2.06453800   -0.15952700
 H          3.23172593    1.80364501    1.98786199
 C          3.19825292    1.18925500   -1.41629195
 H          2.46600008    2.79745293   -0.15946700
 H          4.22783709    2.61768889   -0.15050600
 H          3.27039409    1.81809103   -2.30971909
 C          4.33826303    0.16544800   -1.40896499
 H          1.76805997   -0.16900000   -2.32966208
 H          1.03617203    1.17826903   -1.44956803
 H          4.29138994   -0.45291099   -2.31235194
 H          5.02679110   -1.45898604   -0.15621400
 H          5.30587292    0.67954803   -1.41184199
 H         -0.86936599   -0.26990899   -0.42904699
 H         -4.13429594   -3.73958302   -0.19848800
 H         -3.69168305   -2.99401808    1.36424196
 H         -2.53717494   -4.06724024    0.53147900
