53
wb97x-d4 ma-def2-tzvp(-f) cpcm(dmso) E: -1515.685120739581, G: -1515.27442984
 C         -4.86197090    1.08050394    1.16943097
 C         -3.58815789    0.50082999    0.58343297
 H         -4.99821711    0.66937602    2.17583895
 O         -6.00790691    0.82720703    0.36314401
 H         -4.76146889    2.16322398    1.24715304
 O         -3.77998495   -0.91663301    0.51758200
 C         -3.27064395    1.03077197   -0.81300902
 H         -2.75902104    0.73818803    1.25817895
 C         -2.06287503    0.30722499   -1.36555505
 O         -3.07146597    2.43128896   -0.71960902
 H         -4.12193918    0.80989701   -1.47311997
 C         -2.64277196   -1.64588201    0.11150400
 H         -6.11882877   -0.12958699    0.30624300
 O         -1.72862804    0.77099401   -2.61738610
 O         -1.55653501   -1.49253201    0.97499698
 H         -2.81801891    2.75795007   -1.59132898
 H         -1.06804097    0.17763300   -3.00342798
 C         -1.73558402   -2.11058497    2.24824405
 C         -2.17977500   -1.20181096   -1.27486897
 H         -2.96846294   -2.69125104    0.08669700
 H         -2.95494509   -1.50244105   -1.98938799
 O         -0.99192798   -1.85750997   -1.67847705
 H         -0.38672200   -1.84109998   -0.92409497
 C          1.57733905    0.89832002    0.05741200
 C          1.66397095   -0.29387501    1.01730597
 C          3.05133891   -0.93865502    0.92499697
 H          1.47252798    0.05141500    2.03857994
 H          0.88927400   -1.02359200    0.77156800
 C          3.28882599   -1.41787398   -0.51264799
 C          3.22390795   -0.22101600   -1.47093797
 H          4.26754713   -1.90444195   -0.58946002
 H          2.53001404   -2.15908694   -0.78897899
 C          1.83932698    0.43468499   -1.37864494
 H          1.78059804    1.29368603   -2.05470395
 H          1.07202303   -0.28026101   -1.68531299
 C          2.65361500    1.92786098    0.44587201
 S         -0.02442100    1.76385999    0.20413700
 C          4.12079096    0.08913100    1.30862796
 H          3.09596300   -1.79217696    1.60962403
 C          4.04415989    1.28392398    0.35155401
 H          3.96545696    0.42369899    2.34048200
 H          5.11578512   -0.36666399    1.25689995
 H          4.79711103    2.02875090    0.62895799
 C          4.29450893    0.80482501   -1.08318603
 H          2.59326601    2.79215693   -0.22336300
 H          2.47428107    2.28308606    1.46642196
 H          4.26652288    1.65513504   -1.77380300
 H          3.38995099   -0.56050801   -2.49843693
 H          5.29050779    0.35417399   -1.15590000
 H         -1.00121105    0.79407799   -0.52021700
 H         -0.78377497   -2.02800202    2.77247095
 H         -2.00025606   -3.16637802    2.12679410
 H         -2.51505589   -1.60201800    2.82170606
