53
wb97x-d4 ma-def2-tzvp(-f) cpcm(dmso) E: -1515.684997796456, G: -1515.2742530500002
 C         -2.99592400    2.06600094    0.83948201
 C         -2.55726790    0.82102698    0.09447500
 H         -2.92154789    1.87340903    1.91536295
 O         -4.31077099    2.48509192    0.49055901
 H         -2.32351398    2.88648796    0.58605701
 O         -3.44859290   -0.23486701    0.47163200
 C         -2.61019492    0.97368199   -1.42412496
 H         -1.53638101    0.57704002    0.40866801
 C         -2.24845505   -0.34307399   -2.07418609
 O         -1.79964697    2.02771091   -1.92073202
 H         -3.63724208    1.22724700   -1.70976496
 C         -3.06810808   -1.51056099    0.00083800
 H         -4.92095613    1.78408694    0.74971998
 O         -2.25273991   -0.33070999   -3.44541693
 O         -1.82158399   -1.91333306    0.48438701
 H         -0.86909997    1.77770698   -1.81746995
 H         -1.97195494    0.54794800   -3.74314094
 C         -1.80590701   -2.16855788    1.88859797
 C         -2.98989105   -1.54471099   -1.52987397
 H         -3.85191488   -2.18938208    0.35282600
 H         -4.01573801   -1.48285496   -1.91020405
 O         -2.46687388   -2.77447605   -1.99269295
 H         -1.65419197   -2.94286489   -1.49579895
 C          1.68137896   -0.05943300   -0.76858199
 C          3.13562703   -0.27746299   -1.22109401
 C          4.08792877    0.00457100   -0.05071900
 H          3.26040697   -1.30899405   -1.56564605
 H          3.36669111    0.38629401   -2.06105590
 C          3.91292405    1.45345497    0.41730601
 C          2.46615005    1.67004800    0.87305599
 H          4.60144186    1.66354799    1.24313200
 H          4.15581322    2.14439511   -0.39777100
 C          1.51703501    1.39049006   -0.30064201
 H          0.48559299    1.56527197    0.01837500
 H          1.73047602    2.06981492   -1.13221896
 C          1.37013900   -1.01034606    0.38998300
 S          0.65480298   -0.41885099   -2.24059105
 C          3.76997089   -0.94690597    1.10757804
 H          5.11704922   -0.15335099   -0.38886100
 C          2.32139897   -0.73282802    1.56063998
 H          3.91394210   -1.98587799    0.79050797
 H          4.45472813   -0.75960398    1.94212198
 H          2.08521795   -1.41850495    2.38101506
 C          2.14008188    0.71644700    2.02915692
 H          0.33518299   -0.87027597    0.70303601
 H          1.47524703   -2.04636908    0.05231700
 H          1.10883701    0.87436903    2.36509299
 H          2.33249998    2.70638609    1.19960999
 H          2.79942298    0.92143101    2.87965202
 H         -0.83410698   -0.47000501   -1.77469099
 H         -1.95290506   -1.24469805    2.45441508
 H         -0.82736200   -2.58631110    2.12217999
 H         -2.58711696   -2.88874793    2.15349293
