53
wb97x-d4 ma-def2-tzvp(-f) cpcm(dmso) E: -1515.688712703285, G: -1515.2777003800002
 C         -4.44955111    1.67044103    1.05174100
 C         -3.44374800    0.68489403    0.49097899
 H         -3.92126799    2.51016402    1.50278497
 O         -5.24495888    1.08066702    2.07470608
 H         -5.08014297    2.04714704    0.23688200
 O         -4.20549393   -0.35291001   -0.13692200
 C         -2.50267291    1.33652306   -0.52705300
 H         -2.85769200    0.26347899    1.31497896
 C         -1.67421103    0.26436001   -1.20232797
 O         -1.69949603    2.33892798    0.07190300
 H         -3.10200310    1.84058297   -1.29557598
 C         -3.43065405   -1.44337296   -0.58966398
 H         -5.70122480    0.32419699    1.68596697
 O         -0.84298402    0.77050698   -2.16799212
 O         -2.70653105   -2.06033611    0.43007201
 H         -1.07649899    1.89537597    0.67113101
 H         -0.49926800    0.03085500   -2.69165111
 C         -3.52932191   -2.72837400    1.38579404
 C         -2.43973708   -0.96636999   -1.64972699
 H         -4.14989185   -2.14378905   -1.02760804
 H         -3.02648592   -0.67862999   -2.52955699
 O         -1.55773604   -1.98692298   -2.08145308
 H         -1.14942706   -2.37182403   -1.29282904
 C          1.67451704    0.01563100    0.52632302
 C          2.64990211   -0.14414500    1.70337200
 C          4.08573484    0.10072700    1.21638799
 H          2.39401293    0.56961900    2.49341702
 H          2.56233692   -1.15233898    2.12170005
 C          4.43628407   -0.91775799    0.12564801
 C          3.46522093   -0.76066601   -1.04998600
 H          5.46559811   -0.75979197   -0.21458900
 H          4.37530422   -1.93499196    0.52835399
 C          2.03240895   -1.00602305   -0.56015700
 H          1.33045304   -0.92153001   -1.39466405
 H          1.93885195   -2.01694012   -0.15088700
 C          1.79694402    1.43759406   -0.03362100
 S          0.00377300   -0.30742401    1.18872797
 C          4.20190716    1.51946402    0.64893800
 H          4.76901484   -0.01579000    2.06377292
 C          3.23059511    1.67794502   -0.52569598
 H          3.96966600    2.25483394    1.42742300
 H          5.22917414    1.70448101    0.31612501
 H          3.30241990    2.69226789   -0.93152899
 C          3.57322502    0.65863901   -1.61888397
 H          1.08997798    1.57248604   -0.85476398
 H          1.54152000    2.15840101    0.75029099
 H          2.88856196    0.77475899   -2.46670008
 H          3.70615292   -1.49106801   -1.82914400
 H          4.58883286    0.83587599   -1.98972404
 H         -0.83143699   -0.15644500   -0.11419100
 H         -2.85939193   -3.26042295    2.06008101
 H         -4.19291592   -3.44140506    0.88471299
 H         -4.12764978   -2.01157498    1.95468402
