53
wb97x-d4 ma-def2-tzvp(-f) cpcm(dmso) E: -1515.683929365598, G: -1515.2741853300001
 C         -4.68055010    1.30175602   -0.39426500
 C         -3.55334306    0.31538200   -0.09365000
 H         -5.01547623    1.19256902   -1.42836106
 O         -4.27901793    2.65733910   -0.23525400
 H         -5.51997709    1.06383705    0.26700699
 O         -4.17809486   -0.93769199    0.20249100
 C         -2.59911799    0.09752300   -1.26443696
 H         -3.00012302    0.67308301    0.78266799
 C         -1.61806405   -1.01824701   -0.95889598
 O         -1.90941095    1.26739502   -1.67624104
 H         -3.19576502   -0.21389100   -2.13136411
 C         -3.28553796   -1.91481304    0.69975901
 H         -4.16819000    2.82824206    0.70725000
 O         -0.77488202   -1.32145596   -1.99829900
 O         -2.62906909   -1.49667597    1.85846996
 H         -1.44039798    1.62768698   -0.90984303
 H         -0.59264702   -0.50459301   -2.48716998
 C         -3.49425507   -1.34578800    2.98269200
 C         -2.21315193   -2.26450396   -0.34100699
 H         -3.90937901   -2.79067993    0.90670198
 H         -2.70839906   -2.82218289   -1.14332402
 O         -1.22930205   -3.12872505    0.19573499
 H         -0.88156003   -2.70402598    0.99266899
 C          1.63716197    0.38940600    0.39828700
 C          2.14420605   -0.98282200   -0.05993100
 C          3.55290699   -0.84197700   -0.65271002
 H          2.16000509   -1.66620302    0.79522699
 H          1.46151197   -1.39848697   -0.80503303
 C          3.51423693    0.12129100   -1.84570003
 C          3.02370501    1.49749804   -1.37915504
 H          4.51364183    0.21032199   -2.28569293
 H          2.84670997   -0.27011701   -2.62174892
 C          1.61334705    1.35909700   -0.78984898
 H          1.24232101    2.33363700   -0.45640901
 H          0.92771298    0.99085897   -1.55764306
 C          2.59136510    0.94343799    1.46960795
 S          0.00013500    0.25429201    1.19791496
 C          4.50207806   -0.29060200    0.41734999
 H          3.90018702   -1.82598603   -0.98401099
 C          4.00391197    1.08218503    0.88355398
 H          4.54917192   -0.98009902    1.26772201
 H          5.51508999   -0.20047100    0.00975000
 H          4.67054081    1.47380495    1.65861297
 C          3.97251201    2.04532790   -0.30804199
 H          2.23163009    1.91825902    1.81606102
 H          2.60701108    0.26818201    2.33141208
 H          3.63793612    3.03639889    0.01824200
 H          2.98854399    2.18509007   -2.23030400
 H          4.98022079    2.15823698   -0.72295898
 H         -0.80449998   -0.45034000    0.07119400
 H         -2.85824490   -1.14243197    3.84332800
 H         -4.06239319   -2.26649904    3.15312505
 H         -4.18695021   -0.51283002    2.83446908
