53
wb97x-d4 ma-def2-tzvp(-f) cpcm(dmso) E: -1515.684668983043, G: -1515.27414345
 C         -2.88216591    0.59171802    2.36944103
 C         -2.52287412    0.32187200    0.92323297
 H         -2.23941708    1.37947500    2.76519608
 O         -2.67323995   -0.55934799    3.17995811
 H         -3.92572188    0.92594302    2.42859006
 O         -3.43017197   -0.68791199    0.46398899
 C         -2.68825889    1.54666603    0.02970300
 H         -1.49390399   -0.04539400    0.86581099
 C         -2.43330503    1.15914702   -1.40737605
 O         -1.80048394    2.60667896    0.35900599
 H         -3.72967196    1.89225602    0.10243800
 C         -3.12707591   -1.19232798   -0.82101202
 H         -3.19604206   -1.27627397    2.79956698
 O         -2.56076908    2.19104695   -2.30256605
 O         -1.86508906   -1.78390896   -0.88017100
 H         -2.24801898    3.21157098    0.96118999
 H         -2.20833802    2.99025393   -1.88153195
 C         -1.76776600   -2.98183703   -0.11219000
 C         -3.17022491   -0.07839000   -1.87527597
 H         -3.90748692   -1.93264103   -1.02691996
 H         -4.22126007    0.20084700   -2.00944996
 O         -2.71941900   -0.54030901   -3.13337708
 H         -1.82277405   -0.88317698   -3.00693297
 C          1.55525100    0.37098899   -0.90488201
 C          1.50745404    1.40134704    0.22816899
 C          2.61200094    1.10192299    1.25085497
 H          1.63928998    2.40543294   -0.18780699
 H          0.52710098    1.37219906    0.70993799
 C          2.40115499   -0.30234700    1.83071005
 C          2.45748997   -1.33435905    0.69816202
 H          3.17455292   -0.52082801    2.57542109
 H          1.43078697   -0.35631499    2.33736706
 C          1.35406101   -1.03240299   -0.32496199
 H          1.37274694   -1.77012396   -1.13344204
 H          0.37374899   -1.09304404    0.15098999
 C          2.93127394    0.44275501   -1.58953798
 S          0.34504300    0.75925601   -2.21735311
 C          3.98030901    1.17008197    0.56377703
 H          2.56440806    1.84478402    2.05375290
 C          4.03437710    0.13782200   -0.56746501
 H          4.14856291    2.17538691    0.16128500
 H          4.77514505    0.96886098    1.29050601
 H          5.00523996    0.19056401   -1.07069898
 C          3.82466698   -1.26716995    0.00884000
 H          2.97231293   -0.27874199   -2.41251111
 H          3.07884908    1.44138896   -2.01360297
 H          3.87720799   -2.01256800   -0.79261202
 H          2.29806495   -2.33813596    1.10585999
 H          4.61949921   -1.49825501    0.72655398
 H         -1.03468096    0.83293802   -1.49873805
 H         -1.87461102   -2.77138805    0.95554399
 H         -0.78016400   -3.39932990   -0.30320501
 H         -2.53766489   -3.69667292   -0.42223099
