53
wb97x-d4 ma-def2-tzvp(-f) cpcm(dmso) E: -1515.684319583171, G: -1515.2739949900001
 C         -3.53790808    0.66328502    2.30526304
 C         -2.84193611    0.32957900    0.99897999
 H         -3.28796792   -0.11097700    3.03900790
 O         -4.94882393    0.78584403    2.16336608
 H         -3.17028904    1.62182796    2.67217302
 O         -3.36098194   -0.93414402    0.57033801
 C         -3.07949996    1.37057197   -0.09064600
 H         -1.76850200    0.25097001    1.19484699
 C         -2.50429606    0.88318801   -1.39839196
 O         -2.50950289    2.59683990    0.33816800
 H         -4.16394997    1.48589098   -0.23034699
 C         -2.72256494   -1.47829902   -0.56573999
 H         -5.28858614   -0.06860000    1.87137604
 O         -2.71096611    1.78856897   -2.41163993
 O         -1.36017799   -1.70255804   -0.36497700
 H         -2.70397305    3.26899195   -0.32590401
 H         -2.49490809    1.36185896   -3.25459099
 C         -1.09742403   -2.72771406    0.59292400
 C         -2.87530899   -0.53852999   -1.76100099
 H         -3.24093199   -2.42390704   -0.75673097
 H         -3.93599796   -0.54003102   -2.03705192
 O         -2.17268705   -0.98241502   -2.90710497
 H         -1.24379504   -1.08894205   -2.65667009
 C          1.59361005    0.70497203   -0.75898802
 C          1.17732000    0.65454102    0.71329600
 C          2.33390903    0.10293200    1.56033504
 H          0.90138602    1.65755105    1.05422604
 H          0.30164900    0.00973200    0.81600899
 C          2.68637300   -1.31170797    1.08526194
 C          3.10188007   -1.26766098   -0.38977200
 H          3.50492692   -1.71492004    1.69180202
 H          1.82579505   -1.97450697    1.21512496
 C          1.94842100   -0.70929998   -1.23548901
 H          2.23850393   -0.67376000   -2.29048491
 H          1.06783795   -1.35173595   -1.15314102
 C          2.82877207    1.61113799   -0.90324098
 S          0.30121499    1.45897400   -1.80602098
 C          3.56152201    1.00853205    1.40978301
 H          2.02232599    0.07401600    2.60955906
 C          3.98447895    1.05087996   -0.06368700
 H          3.32880807    2.01994610    1.76147294
 H          4.38439608    0.62695599    2.02425003
 H          4.85528278    1.70402205   -0.18052000
 C          4.32970381   -0.36323300   -0.54389501
 H          3.12273312    1.66930699   -1.95699894
 H          2.57913899    2.62369895   -0.57087702
 H          4.64655399   -0.33530399   -1.59252000
 H          3.34097910   -2.27858496   -0.73575002
 H          5.16511202   -0.76214302    0.04204200
 H         -1.05585396    0.92546397   -1.28047204
 H         -1.31603396   -2.37955499    1.60615003
 H         -0.04061400   -2.97521996    0.51220798
 H         -1.69915795   -3.61632800    0.37468600
