53
wb97x-d4 ma-def2-tzvp(-f) cpcm(dmso) E: -1515.685027959908, G: -1515.27391082
 C         -4.58494282    1.48225701    0.95994103
 C         -3.52758193    0.49127901    0.48632199
 H         -5.10533810    1.90011406    0.08855900
 O         -4.03435898    2.51518011    1.76806605
 H         -5.31392384    0.94744802    1.57169998
 O         -4.24045420   -0.59537399   -0.10539600
 C         -2.57412505    1.11397505   -0.54076499
 H         -2.95315909    0.14095201    1.35111105
 C         -1.70073104    0.04987700   -1.16660595
 O         -1.81525695    2.17137599    0.03510000
 H         -3.17117310    1.57104897   -1.33958995
 C         -3.40804696   -1.67614603   -0.49201500
 H         -3.25304890    2.84982800    1.30380201
 O         -0.87893701    0.54865003   -2.14410901
 O         -2.67777705   -2.19800901    0.57024002
 H         -1.16907704    1.77087700    0.64266998
 H         -0.52986401   -0.20063600   -2.65098190
 C         -3.49359894   -2.81819201    1.56264496
 C         -2.45041609   -1.19424796   -1.58336902
 H         -4.09522104   -2.42887807   -0.89527798
 H         -3.08153009   -0.90835202   -2.43622398
 O         -1.49955297   -2.16423607   -1.98904705
 H         -1.90038002   -2.72741008   -2.66178989
 C          1.65033102    0.04452700    0.56537199
 C          2.63865590   -0.07490900    1.73680604
 C          4.06186104    0.22085699    1.24044502
 H          2.36150694    0.63109702    2.52670908
 H          2.59090209   -1.08438897    2.15828705
 C          4.44319391   -0.78747398    0.15066300
 C          3.46001601   -0.66900802   -1.01913404
 H          5.46416521   -0.59341103   -0.19604599
 H          4.42116785   -1.80505896    0.55651402
 C          2.04028893   -0.96641898   -0.51951200
 H          1.33183098   -0.91001600   -1.35013604
 H          1.98759794   -1.97884202   -0.10688000
 C          1.71687400    1.46828401    0.00072500
 S         -0.00351300   -0.33918199    1.24099302
 C          4.12281990    1.64083397    0.66739398
 H          4.75386477    0.13192099    2.08406901
 C          3.13783407    1.76033604   -0.50071901
 H          3.87101793    2.37048697    1.44514096
 H          5.14020491    1.86080098    0.32563001
 H          3.16997600    2.77553606   -0.90940100
 C          3.51157808    0.75125700   -1.59308803
 H          1.00117600    1.57474697   -0.81743097
 H          1.43952000    2.18156195    0.78404599
 H          2.81850910    0.83911097   -2.43745995
 H          3.72252798   -1.39244103   -1.79785895
 H          4.51780891    0.96516502   -1.97018600
 H         -0.84454000   -0.30715501   -0.06294700
 H         -2.81736708   -3.29495311    2.27136898
 H         -4.14236212   -3.57439709    1.10692096
 H         -4.10896301   -2.08024693    2.08473206
