53
wb97x-d4 ma-def2-tzvp(-f) cpcm(dmso) E: -1515.684523852982, G: -1515.2734061800002
 C         -4.78871012    1.30383098    0.06399800
 C         -3.59850311    0.37184501    0.25534299
 H         -5.39418888    0.95434600   -0.78173101
 O         -4.38661718    2.65622306   -0.11999100
 H         -5.40470982    1.27239299    0.96452701
 O         -4.13529396   -0.89170200    0.65110999
 C         -2.79187298    0.17896999   -1.03067303
 H         -2.95568609    0.77490503    1.04535699
 C         -1.74755597   -0.89929199   -0.83670902
 O         -2.19896197    1.38440394   -1.50462997
 H         -3.47858500   -0.14703900   -1.82199299
 C         -3.14935207   -1.84121096    1.02246594
 H         -3.73732591    2.66697407   -0.83711398
 O         -0.99663800   -1.18721998   -1.94798696
 O         -2.35336709   -1.39788902    2.07417393
 H         -1.50643098    1.64015102   -0.86797303
 H         -0.90504599   -0.38226500   -2.47931600
 C         -3.06856394   -1.26206601    3.30108905
 C         -2.26172400   -2.15985298   -0.18076900
 H         -3.71450210   -2.73281693    1.31495404
 H         -2.91227198   -2.65439296   -0.91643697
 O         -1.22778404   -3.03844190    0.22133800
 H         -0.82585299   -3.40960908   -0.57313102
 C          1.59013903    0.60917002    0.20428801
 C          1.98493302   -0.86990499    0.13583000
 C          3.42019892   -0.99655002   -0.39209700
 H          1.90738297   -1.31443703    1.13311899
 H          1.29400301   -1.40501702   -0.52154601
 C          3.50449204   -0.37778401   -1.79244900
 C          3.11911702    1.10442102   -1.72213697
 H          4.52188396   -0.47962901   -2.18579006
 H          2.83212495   -0.90709400   -2.47704291
 C          1.68479097    1.23612106   -1.19083703
 H          1.39360702    2.28991508   -1.13779998
 H          0.99095702    0.73473102   -1.87038100
 C          2.55366993    1.34588504    1.14892697
 S         -0.07681400    0.80005097    0.92837399
 C          4.37787580   -0.26055300    0.55165100
 H          3.69005990   -2.05648589   -0.43977299
 C          3.98965693    1.22106004    0.62098497
 H          4.33429813   -0.70608598    1.55183101
 H          5.40794182   -0.35997000    0.19204199
 H          4.66389704    1.74865305    1.30304205
 C          4.07893705    1.83863902   -0.77907199
 H          2.26792908    2.40102410    1.21777797
 H          2.48362494    0.91490799    2.15281391
 H          3.82201290    2.90304995   -0.73724300
 H          3.17030191    1.54822099   -2.72159290
 H          5.10521984    1.76252699   -1.15466595
 H         -0.85859197   -0.24318300    0.10183800
 H         -2.33303189   -1.02277899    4.06815720
 H         -3.57334208   -2.20065188    3.55556107
 H         -3.80773211   -0.45849401    3.24028802
