53
wb97x-d4 ma-def2-tzvp(-f) cpcm(dmso) E: -1515.683602007777, G: -1515.27246362
 C         -4.83463478    0.69626701    1.42973399
 C         -3.58466601    0.38940001    0.62352300
 H         -5.19971323   -0.24008000    1.85717702
 O         -5.89853811    1.23935997    0.65317202
 H         -4.56903791    1.36785400    2.25061393
 O         -3.90473390   -0.64421302   -0.31356800
 C         -3.04620600    1.59122896   -0.15111101
 H         -2.82154107    0.02924900    1.32416797
 C         -1.83563304    1.17632198   -0.96630800
 O         -2.76625609    2.72198391    0.66077000
 H         -3.81866002    1.92186499   -0.85563999
 C         -2.79870296   -1.13944399   -1.03553200
 H         -5.77523279    2.19267011    0.58665800
 O         -1.24135995    2.19510293   -1.66275501
 O         -1.82662296   -1.71539998   -0.21449099
 H         -2.09464502    2.48902202    1.31650102
 H         -1.30265498    3.00030994   -1.12626004
 C         -2.23062396   -2.94743991    0.37904301
 C         -2.10555911   -0.03240300   -1.83755398
 H         -3.21563506   -1.88857198   -1.71708000
 H         -2.80245805    0.29065099   -2.61964512
 O         -0.95877099   -0.52132201   -2.50229311
 H         -0.45380700   -1.03423202   -1.85716903
 C          1.60177398    0.33967000    0.66106200
 C          1.89858305    1.05176103   -0.66333902
 C          3.27405906    0.61480302   -1.18533695
 H          1.12594998    0.80902302   -1.39614403
 H          1.87768805    2.13485694   -0.50674099
 C          4.35135889    0.99004602   -0.16237800
 C          4.05964422    0.28325599    1.16650999
 H          5.33919096    0.69439101   -0.53265202
 H          4.36636591    2.07578111   -0.01521700
 C          2.68145299    0.71838403    1.68719900
 H          2.47013307    0.23046800    2.64473295
 H          2.66653895    1.80031002    1.85280097
 C          1.62514901   -1.17889297    0.45506001
 S         -0.00370300    0.87134397    1.35714996
 C          3.27861404   -0.90338600   -1.40213001
 H          3.47166109    1.12386703   -2.13435793
 C          2.99827600   -1.61266398   -0.07248200
 H          2.51611710   -1.17756402   -2.14028096
 H          4.24935389   -1.22150099   -1.79814601
 H          2.99595189   -2.69685411   -0.22468300
 C          4.07483912   -1.23455203    0.95020401
 H          1.40981102   -1.67591596    1.40637505
 H          0.84008902   -1.47236204   -0.24554400
 H          3.88885403   -1.75145602    1.89831197
 H          4.81825781    0.55879498    1.90607202
 H          5.06091499   -1.54923797    0.59126002
 H         -0.89412600    0.82894701    0.07865400
 H         -3.05483007   -2.79172707    1.08034694
 H         -1.36502898   -3.33612299    0.91444498
 H         -2.53726411   -3.66165209   -0.39270699
