53
wb97x-d4 ma-def2-tzvp(-f) cpcm(dmso) E: -1515.683823894172, G: -1515.27244059
 C         -3.05886412    2.24163699    0.33829400
 C         -2.59440899    0.84399402   -0.05192500
 H         -3.98012805    2.49100089   -0.20325100
 O         -2.04996109    3.21866798    0.10864000
 H         -3.27529907    2.24875998    1.40814602
 O         -3.52656198   -0.07673700    0.51757902
 C         -2.56869006    0.63457203   -1.56410301
 H         -1.59526300    0.67736298    0.36156100
 C         -2.20791888   -0.79746002   -1.86997402
 O         -1.66671705    1.56888497   -2.14347291
 H         -3.58523107    0.81241000   -1.94603205
 C         -3.14714789   -1.43385398    0.38837099
 H         -1.76742196    3.11654210   -0.81147701
 O         -2.16677499   -1.04048395   -3.22142911
 O         -1.93387198   -1.71838701    1.01171196
 H         -1.82879603    1.60509002   -3.09348702
 H         -2.11821890   -1.99798405   -3.36247897
 C         -1.98582006   -1.61424303    2.43364096
 C         -3.01431799   -1.81739998   -1.08764601
 H         -3.96127295   -1.99880302    0.85480100
 H         -4.02468681   -1.82354796   -1.51175201
 O         -2.50391698   -3.12585402   -1.26653504
 H         -1.65969300   -3.17101192   -0.79318798
 C          1.62711298   -0.56169301   -0.49706501
 C          3.06285191   -1.09149694   -0.65588897
 C          4.02149916   -0.24331200    0.19170401
 H          3.10747695   -2.13854098   -0.33794400
 H          3.35681009   -1.04886901   -1.70973802
 C          3.96366191    1.21382797   -0.27966300
 C          2.53429294    1.74475706   -0.12085800
 H          4.65843201    1.82411003    0.30790600
 H          4.27306080    1.28087497   -1.32876205
 C          1.57672906    0.89515698   -0.96647400
 H          0.55589002    1.27367401   -0.87876701
 H          1.85725105    0.94713199   -2.02343607
 C          1.22571099   -0.64420700    0.97670799
 S          0.58670503   -1.63447201   -1.55018103
 C          3.60923505   -0.32122901    1.66632402
 H          5.03771305   -0.63211000    0.07068800
 C          2.17947888    0.20768000    1.82525206
 H          3.66608191   -1.35790598    2.01677489
 H          4.29935980    0.27083200    2.27750301
 H          1.87518799    0.14483900    2.87516189
 C          2.11626101    1.66626501    1.35275495
 H          0.19986600   -0.29331899    1.09804702
 H          1.25431395   -1.68792999    1.30496800
 H          1.09840703    2.05452108    1.47271395
 H          2.48618889    2.78366709   -0.46340901
 H          2.78029704    2.28719401    1.96420300
 H         -0.82901299   -0.99950802   -1.47123301
 H         -2.79470396   -2.23600698    2.83213305
 H         -2.13708091   -0.57678002    2.74408293
 H         -1.02809703   -1.97030604    2.81049895
