53
wb97x-d4 ma-def2-tzvp(-f) cpcm(dmso) E: -1515.684251959369, G: -1515.2724247200001
 C         -4.94730091    1.09824598    0.77442002
 C         -3.66287088    0.36391199    0.41058600
 H         -5.68728685    0.95986301   -0.02421500
 O         -4.71837902    2.47976494    1.02516103
 H         -5.34828615    0.66611898    1.69307399
 O         -3.96837902   -1.03219104    0.45842201
 C         -3.16913104    0.72099602   -0.99695200
 H         -2.89316797    0.60623002    1.15111697
 C         -1.97910094   -0.14226900   -1.34319603
 O         -2.90214801    2.11199903   -1.13825095
 H         -3.97434306    0.49465901   -1.70728004
 C         -2.85261798   -1.87739301    0.26412100
 H         -4.22762680    2.82428193    0.26500499
 O         -1.45782399    0.14566900   -2.57646489
 O         -1.86122203   -1.70659697    1.23063803
 H         -2.02285409    2.30100703   -0.77256000
 H         -0.86522800   -0.57645798   -2.83419800
 C         -2.25058198   -2.15093803    2.52979803
 C         -2.21557999   -1.62077904   -1.10160804
 H         -3.25770712   -2.89399791    0.30657500
 H         -2.93160391   -1.95538199   -1.86111403
 O         -1.03821898   -2.37761593   -1.30854595
 H         -0.47195899   -2.24834895   -0.53499502
 C          1.51172495    0.77333999    0.16618100
 C          1.87419295   -0.46378899    1.00071895
 C          3.33482289   -0.85662299    0.74042201
 H          1.72459996   -0.24241599    2.06207609
 H          1.20769501   -1.29154694    0.74021500
 C          3.52335811   -1.16462505   -0.74950898
 C          3.17092800    0.07567100   -1.57834101
 H          4.56082201   -1.46003604   -0.94108701
 H          2.88290405   -2.00425792   -1.04278898
 C          1.70744896    0.45918301   -1.31879997
 H          1.42641604    1.32786298   -1.92180502
 H          1.05929506   -0.37287301   -1.60450304
 C          2.43179607    1.93636596    0.56741399
 S         -0.19905899    1.30381501    0.53445703
 C          4.24956322    0.30552399    1.14261794
 H          3.57749009   -1.74273098    1.33580196
 C          3.89404202    1.54489803    0.31332201
 H          4.13304615    0.52188599    2.21044588
 H          5.29724789    0.03351800    0.97386301
 H          4.53816080    2.38102102    0.60389000
 C          4.08554697    1.23830700   -1.17651999
 H          2.17324495    2.82622099   -0.01511600
 H          2.28439093    2.17592502    1.62602305
 H          3.85128999    2.12572098   -1.77514505
 H          3.29580307   -0.14348000   -2.64354110
 H          5.13115692    0.97631001   -1.37179101
 H         -1.01710701    0.33513099   -0.37770700
 H         -2.59377789   -3.19037199    2.49031806
 H         -3.04570699   -1.51962399    2.93526602
 H         -1.36791694   -2.07910204    3.16408300
