53
wb97x-d4 ma-def2-tzvp(-f) cpcm(dmso) E: -1515.688873028312, G: -1515.27715128
 C         -4.36298800    1.71742404    1.15624499
 C         -3.41227007    0.74065602    0.49268100
 H         -3.79023409    2.44650793    1.72908103
 O         -5.23658085    1.06333995    2.07068491
 H         -4.93408298    2.24667501    0.38341400
 O         -4.22309494   -0.13908900   -0.29429999
 C         -2.38522100    1.45629203   -0.39106700
 H         -2.89021802    0.16591901    1.26555300
 C         -1.62067401    0.44106501   -1.21450496
 O         -1.52904201    2.28163195    0.38079000
 H         -2.91300988    2.12493610   -1.08250701
 C         -3.50653791   -1.20124900   -0.88912499
 H         -5.74010706    0.40856999    1.57163405
 O         -0.73273200    1.02439797   -2.08205295
 O         -2.83802104   -1.99866295    0.03986600
 H         -0.98054200    1.70075202    0.93202502
 H         -0.44104099    0.34939399   -2.71368003
 C         -3.71355605   -2.75053692    0.87958401
 C         -2.46692610   -0.64222598   -1.85689497
 H         -4.25680685   -1.78719497   -1.43074405
 H         -3.01431990   -0.17692500   -2.68438697
 O         -1.65731800   -1.64828598   -2.43864894
 H         -1.28552902   -2.17569995   -1.71744394
 C          1.66679394   -0.20333600    0.53078699
 C          1.79770899    1.30557299    0.29846299
 C          3.24805188    1.65116298   -0.06480000
 H          1.12690496    1.61486804   -0.50558901
 H          1.50049400    1.83884895    1.20777702
 C          4.17177486    1.23972297    1.08691394
 C          4.04712105   -0.26984701    1.32462096
 H          5.20988607    1.49408495    0.84614599
 H          3.90182400    1.78633201    1.99749601
 C          2.59512901   -0.61580998    1.68459499
 H          2.49997497   -1.69106102    1.86895502
 H          2.30039501   -0.09254100    2.60027099
 C          2.08089304   -0.96253097   -0.73644298
 S         -0.02572000   -0.66966099    1.03954899
 C          3.64655590    0.89626998   -1.33879900
 H          3.32543111    2.72982597   -0.23508200
 C          3.53049588   -0.61380798   -1.09926403
 H          2.99638700    1.19483495   -2.16896701
 H          4.67473221    1.15158796   -1.61849701
 H          3.81104207   -1.15558004   -2.00841308
 C          4.45385313   -1.02336299    0.05305400
 H          1.98169994   -2.03870010   -0.56294298
 H          1.41363704   -0.69732702   -1.56120205
 H          4.38780022   -2.10439706    0.21974599
 H          4.69623709   -0.56765401    2.15438890
 H          5.49449492   -0.79230797   -0.19982301
 H         -0.82952797   -0.20597400   -0.20980000
 H         -4.29098606   -2.08994794    1.53199697
 H         -3.08497500   -3.40227604    1.48506296
 H         -4.39726114   -3.35468197    0.27359200
