33
wb97x-d4 ma-def2-tzvp(-f) cpcm(dmso) E: -955.172085749755, G: -954.95166709
 C         -1.70816195   -1.06107295    0.13323900
 C         -0.28836501   -1.15914595    0.60612202
 O          0.48891199   -1.84997106   -0.26301700
 C          0.21687400    0.11599500    1.23330903
 O          1.55279803    0.08369800    1.69058001
 C          0.00062000    1.25951600    0.23133500
 C         -1.46978903    1.30472696   -0.18168400
 C         -1.74356794    2.35587192   -1.23950505
 O         -3.13024998    2.42875791   -1.56194901
 O         -1.86317503    0.05329300   -0.75326401
 O          0.33734599    2.51551104    0.81023902
 O         -2.55476999   -0.94986397    1.24668598
 H         -2.08133888    1.51624298    0.70379299
 H         -1.97893703   -1.92942095   -0.47631401
 H         -0.40858400    0.33118299    2.10591698
 H          0.61863297    1.07344902   -0.65796298
 C         -3.93711209   -0.92980498    0.89678597
 H          1.46395695   -1.88616204   -0.01788100
 H         -1.45238304    3.33669710   -0.86390001
 H         -1.14998603    2.13046098   -2.13426495
 H          1.16399395    2.38287902    1.29303801
 H          2.18071198    0.01711000    0.92267698
 H         -3.40546298    1.54462194   -1.83464599
 H         -4.19940805   -0.00964900    0.36774999
 H         -4.49861622   -0.98551399    1.82887399
 H         -4.18639994   -1.79108095    0.26655799
 O          3.04607797   -2.23266006   -0.04952900
 O          3.43883610   -0.04062500   -0.19361199
 C          5.17881680   -1.53839898   -0.86215198
 C          3.78165889   -1.24585104   -0.33861899
 H          5.18686199   -2.45428300   -1.45387900
 H          5.84203291   -1.68353295   -0.00407300
 H          5.55817795   -0.70297998   -1.45065105
