33
wb97x-d4 ma-def2-tzvp(-f) cpcm(dmso) E: -955.172043082385, G: -954.95136939
 C         -1.70719302   -1.06411397    0.04030200
 C         -0.28747001   -1.18802798    0.50939101
 O          0.49563000   -1.80530906   -0.40821099
 C          0.20577399    0.04470600    1.22540796
 O          1.53654099   -0.00973100    1.69519997
 C         -0.00705600    1.24975598    0.29748699
 C         -1.47612500    1.31778502   -0.11809500
 C         -1.74927902    2.43527889   -1.10600805
 O         -3.13399601    2.51901197   -1.43410599
 O         -1.86250806    0.10534800   -0.77249599
 O          0.32566801    2.46550393    0.95786202
 O         -2.55619693   -1.02825105    1.15616202
 H         -2.09227610    1.46886694    0.77655703
 H         -1.97401404   -1.89160204   -0.62522399
 H         -0.42951599    0.19947299    2.10349488
 H          0.61474502    1.12161100   -0.59927601
 C         -3.93825412   -0.99239200    0.80704200
 H          1.47121894   -1.85562801   -0.16434300
 H         -1.46847904    3.39113688   -0.66395497
 H         -1.14717305    2.27388906   -2.00885510
 H          1.14812601    2.30036712    1.43792403
 H          2.17285609   -0.05752600    0.93412900
 H         -3.40098906    1.65090704   -1.76125598
 H         -4.20689917   -0.03705600    0.34810001
 H         -4.49997187   -1.12173796    1.73172700
 H         -4.18096495   -1.80607998    0.11419900
 O          3.04491091   -2.22952008   -0.16808300
 O          3.43360591   -0.03298400   -0.18784700
 C          5.20529413   -1.49434602   -0.86093199
 C          3.78843307   -1.22814202   -0.37863499
 H          5.62613201   -0.61355001   -1.34570801
 H          5.22672415   -2.34742308   -1.54014802
 H          5.82270718   -1.74022305    0.00819500
