33
wb97x-d4 ma-def2-tzvp(-f) cpcm(dmso) E: -955.17141815856, G: -954.95049989
 C         -1.36574697   -0.82033598    0.39471999
 C          0.10530300   -0.66183501    0.15392300
 O          0.59996903   -1.56687796   -0.72523803
 C          0.55454302    0.77744299    0.07490900
 O          1.89628601    0.95003402   -0.32577401
 C         -0.32105801    1.49762106   -0.95438200
 C         -1.79730701    1.30647504   -0.61618000
 C         -2.71365190    1.91100895   -1.66372705
 O         -4.08582020    1.74321103   -1.31607795
 O         -2.11585498   -0.08790700   -0.57802200
 O         -0.04677100    2.89525890   -0.97008097
 O         -1.65770304   -0.38561299    1.69761300
 H         -2.00786710    1.76197302    0.35869500
 H         -1.67841804   -1.86007500    0.25150600
 H          0.37094900    1.25349605    1.04876006
 H         -0.12004700    1.06064904   -1.94202697
 C         -3.02954793   -0.55282700    2.04827905
 H          1.60465705   -1.55585301   -0.75266600
 H         -2.53142500    2.98281598   -1.74048197
 H         -2.50294495    1.44678903   -2.63547301
 H          0.91381598    2.98686504   -1.00964904
 H          2.48275495    0.36747500    0.22824800
 H         -4.22303391    0.80049998   -1.15904796
 H         -3.11355591   -0.32371199    3.11038804
 H         -3.34898591   -1.58613598    1.86997998
 H         -3.67072105    0.12498600    1.47818899
 O          3.17797804   -1.97898805   -0.68569499
 O          3.57098794   -0.59499502    1.02429402
 C          5.08356810   -2.41205812    0.68034101
 C          3.85699391   -1.59390903    0.30798599
 H          5.54144812   -2.84829092   -0.20807201
 H          4.76166487   -3.23053408    1.33149099
 H          5.80954218   -1.80665803    1.22327304
