33
wb97x-d4 ma-def2-tzvp(-f) cpcm(dmso) E: -955.17153042615, G: -954.95038817
 C         -2.21408892   -1.01602697   -0.00860300
 C         -1.04727697   -1.69211805   -0.65230602
 O         -1.35892200   -2.38435507   -1.78831697
 C          0.24789600   -0.92949802   -0.67631799
 O          1.16606903   -1.60475898   -1.51048994
 C         -0.02553900    0.49676800   -1.17966104
 C         -1.16873705    1.10699403   -0.36005399
 C         -1.54126298    2.49717903   -0.83499098
 O         -2.57907701    3.06391501   -0.03792000
 O         -2.35716009    0.31568500   -0.49936000
 O          1.12952697    1.30918205   -1.13553202
 O         -2.02125001   -1.03213203    1.38253295
 H         -0.87862498    1.15231097    0.69722599
 H         -3.15390205   -1.51118195   -0.27659899
 H          0.63917100   -0.85281402    0.34572101
 H         -0.35187200    0.43136200   -2.22555995
 C         -3.12032700   -0.47809801    2.10252094
 H         -0.51390302   -2.57996893   -2.22704506
 H         -0.67755401    3.15596890   -0.75184703
 H         -1.84878504    2.44850492   -1.88751805
 H          1.74159598    0.99023098   -0.42477199
 H          2.07388210   -1.48148000   -1.11707795
 H         -3.31018901    2.43354702   -0.03787800
 H         -4.05866480   -0.95495701    1.79623604
 H         -3.19550204    0.60095000    1.94301498
 H         -2.93792009   -0.67846102    3.15804601
 O          3.53854203   -1.29481602   -0.40843701
 O          2.94361591    0.56162602    0.69467598
 C          5.04052687   -0.42802200    1.23133099
 C          3.73501301   -0.38881201    0.44983301
 H          5.47130680   -1.42936695    1.23415101
 H          4.88414478   -0.08094400    2.25377488
 H          5.74926710    0.25358599    0.75122303
