33
wb97x-d4 ma-def2-tzvp(-f) cpcm(dmso) E: -955.169294828828, G: -954.9502949
 C         -1.66833496   -0.95690000    0.03885200
 C         -0.17989300   -0.89260501   -0.11245300
 O          0.46189600   -1.92493701    0.47846100
 C          0.49060601    0.44682300   -0.22499999
 O          1.73247099    0.41669399   -0.92979997
 C         -0.39988601    1.42362797   -0.97988999
 C         -1.84420705    1.34592497   -0.50560099
 C         -2.77321005    2.27449012   -1.28046095
 O         -2.57188296    3.64416599   -0.95241898
 O         -2.31671190    0.02146600   -0.74708498
 O          0.06423100    2.76374197   -0.81230497
 O         -1.99798906   -0.81638902    1.40949202
 H         -1.90636694    1.58496201    0.56251401
 H         -2.05703807   -1.91770601   -0.32186499
 H          0.66528600    0.85931301    0.78390098
 H         -0.37840000    1.15535200   -2.04345608
 C         -3.37477589   -1.06863594    1.67464197
 H          1.45221198   -1.74662697    0.58990800
 H         -2.63953805    2.10453010   -2.35681105
 H         -3.80479002    2.02948499   -1.01904202
 H          0.95055300    2.81392002   -1.19055295
 H          2.35690808   -0.13456100   -0.41854101
 H         -1.62210202    3.81120610   -1.03757596
 H         -3.66864109   -2.05069590    1.28516901
 H         -4.01201010   -0.29994801    1.22764802
 H         -3.49886703   -1.05672097    2.75770807
 O          3.58227897   -3.46664691    0.78719598
 O          2.96067595   -1.32296205    0.73527300
 C          5.27921009   -1.79320598    0.51746202
 C          3.84050107   -2.25384498    0.69716197
 H          5.38719082   -1.35862303   -0.48040101
 H          5.97694588   -2.62331009    0.62484998
 H          5.51367807   -1.01137900    1.24302101
