33
wb97x-d4 ma-def2-tzvp(-f) cpcm(dmso) E: -955.171029772959, G: -954.9502626999999
 C         -1.36075306   -0.89961702    0.15216599
 C         -0.08336500   -1.12360096   -0.59584999
 O          0.57064700   -2.25489497   -0.24464600
 C          0.68872303    0.07143600   -1.07643497
 O          1.57474196   -0.21587400   -2.15774488
 C         -0.26510200    1.15122104   -1.57001102
 C         -1.38277495    1.37093306   -0.56128198
 C         -2.38540292    2.41421890   -1.01382399
 O         -3.40901494    2.61016703   -0.04169000
 O         -2.11465406    0.14939199   -0.42127299
 O          0.42423299    2.38044500   -1.76683402
 O         -1.05476499   -0.63225400    1.50978899
 H         -0.96126699    1.66531003    0.40658501
 H         -2.00889111   -1.78300202    0.09989000
 H          1.27200496    0.49654800   -0.24115500
 H         -0.71074200    0.81141198   -2.51392889
 C         -2.21090007   -0.58864897    2.34250498
 H          1.56418800   -2.16570711   -0.39732099
 H         -1.88367498    3.37233400   -1.14633906
 H         -2.81695104    2.10663390   -1.97455895
 H          1.20351005    2.18224812   -2.30187702
 H          2.28639007   -0.78783798   -1.80484998
 H         -3.80108905    1.74610996    0.13668001
 H         -2.82796788    0.28663501    2.12001705
 H         -1.85937703   -0.53082597    3.37258697
 H         -2.81280398   -1.49578595    2.21376896
 O          4.95467281   -0.92143899    0.11569300
 O          3.10335302   -1.88620698   -0.66952699
 C          3.24085689   -1.51175296    1.68403697
 C          3.83128309   -1.42587900    0.28238299
 H          3.97533989   -1.23079300    2.43764806
 H          2.87731290   -2.52332711    1.87662101
 H          2.38223410   -0.83759600    1.74877906
