33
wb97x-d4 ma-def2-tzvp(-f) cpcm(dmso) E: -955.171114209851, G: -954.95024432
 C         -1.38493705   -0.86283302    0.19280800
 C         -0.12251900   -1.11780298   -0.57182699
 O          0.51402003   -2.25525498   -0.20967101
 C          0.66572601    0.05526000   -1.08047700
 O          1.52406800   -0.26459101   -2.17423391
 C         -0.27666599    1.14787197   -1.56763697
 C         -1.36661005    1.40039802   -0.53643602
 C         -2.35258007    2.46635389   -0.97346002
 O         -3.34710908    2.69410610    0.02073100
 O         -2.12449908    0.19864100   -0.37439799
 O          0.43267700    2.35955596   -1.79477596
 O         -1.05502403   -0.59717900    1.54465902
 H         -0.91760200    1.68924606    0.42081800
 H         -2.05098605   -1.73374796    0.15327600
 H          1.27394795    0.47912899   -0.26226899
 H         -0.74979800    0.80492198   -2.49707103
 C         -2.19868398   -0.53663999    2.39227295
 H          1.50104201   -2.20155597   -0.40820801
 H         -1.82926798    3.41012597   -1.12509704
 H         -2.81392097    2.16300201   -1.92183602
 H          1.19540000    2.13869405   -2.34433699
 H          2.23536205   -0.83774501   -1.82225502
 H         -3.75684404    1.84156096    0.21334501
 H         -2.80802393   -1.44143999    2.28161097
 H         -2.81312609    0.34015399    2.16783810
 H         -1.83372796   -0.46935299    3.41725802
 O          3.04330897   -1.98104095   -0.73529899
 O          4.91872501   -0.99301100   -0.04080700
 C          3.28243995   -1.58694506    1.60673296
 C          3.80995297   -1.50783002    0.17960800
 H          2.45404911   -0.88035202    1.71268404
 H          4.06047392   -1.33605802    2.32682490
 H          2.89073110   -2.58564210    1.80962896
