33
wb97x-d4 ma-def2-tzvp(-f) cpcm(dmso) E: -955.17129892192, G: -954.9502243
 C         -2.23547697   -1.03996205   -0.04594100
 C         -1.04260898   -1.66013801   -0.69714701
 O         -1.31296897   -2.26413107   -1.89266098
 C          0.24348800   -0.88695300   -0.62264502
 O          1.19535506   -1.49776006   -1.46934104
 C         -0.03376500    0.56487900   -1.04209995
 C         -1.20935702    1.11517501   -0.22366901
 C         -1.58839798    2.53576708   -0.60000098
 O         -1.98067105    2.65638995   -1.96585500
 O         -2.38372803    0.32154700   -0.44332299
 O          1.10785699    1.38632798   -0.90551698
 O         -2.08104205   -1.14887404    1.34577799
 H         -0.94362700    1.10508204    0.84143502
 H         -3.16110301   -1.52586102   -0.37365401
 H          0.59849900   -0.87592101    0.41545999
 H         -0.32200399    0.56171298   -2.09899592
 C         -3.21321702   -0.67538100    2.07164598
 H         -0.45395800   -2.42285109   -2.31848693
 H         -2.39680099    2.87101698    0.06036300
 H         -0.72706503    3.18834996   -0.45815799
 H          1.69751704    1.03211606   -0.19354300
 H          2.09599805   -1.35402095   -1.06750906
 H         -2.70737290    2.03799796   -2.10963202
 H         -3.32085490    0.40843800    1.97635496
 H         -3.04735494   -0.93474299    3.11702704
 H         -4.12825584   -1.16208506    1.71450806
 O          2.88090992    0.55132103    0.93342501
 O          3.56137204   -1.14194202   -0.36360499
 C          5.04654312   -0.36153001    1.33026898
 C          3.72244692   -0.31875500    0.58094698
 H          5.48599482   -1.35876298    1.29499102
 H          4.91639614   -0.04132900    2.36467791
 H          5.73725700    0.33487999    0.84490103
