33
wb97x-d4 ma-def2-tzvp(-f) cpcm(dmso) E: -955.171294000826, G: -954.95021793
 C         -2.22317410   -1.06165802   -0.08876300
 C         -1.02466297   -1.64332294   -0.76466298
 O         -1.28901100   -2.19542098   -1.98642802
 C          0.25345001   -0.86122602   -0.65673500
 O          1.21209395   -1.42920494   -1.52579701
 C         -0.03859100    0.60257602   -1.02097595
 C         -1.22199702    1.11007094   -0.18621001
 C         -1.61642599    2.53857803   -0.51431799
 O         -2.01183891    2.70015407   -1.87519002
 O         -2.38714600    0.31176099   -0.43625301
 O          1.09329700    1.43134499   -0.85182500
 O         -2.06251407   -1.21906102    1.29752696
 H         -0.95824897    1.06565404    0.87850600
 H         -3.14458704   -1.54519498   -0.43142501
 H          0.60672098   -0.88698202    0.38167399
 H         -0.32473201    0.63541102   -2.07790899
 C         -3.19313407   -0.77611399    2.04495597
 H         -0.42863500   -2.32733297   -2.41847110
 H         -2.42720699    2.84350109    0.15765899
 H         -0.76149100    3.19476295   -0.35196799
 H          1.68725097    1.05994701   -0.15200700
 H          2.11124992   -1.28498304   -1.12145901
 H         -2.73164296    2.07853508   -2.03846192
 H         -3.30722094    0.30961001    1.98570299
 H         -3.01954508   -1.06832898    3.08037400
 H         -4.10765696   -1.25587404    1.67741394
 O          2.87518406    0.55594099    0.95900297
 O          3.57227492   -1.07448494   -0.40780801
 C          5.03752089   -0.37553400    1.33669698
 C          3.72163701   -0.29644001    0.57604200
 H          5.74455976    0.31801000    0.87116200
 H          5.46041489   -1.37923598    1.28341496
 H          4.90380812   -0.07545900    2.37653208
