33
wb97x-d4 ma-def2-tzvp(-f) cpcm(dmso) E: -955.172358141814, G: -954.95119404
 C         -2.45691705   -1.04882896   -0.29326001
 C         -1.14487302   -1.70676696   -0.56355101
 O         -1.01160002   -2.17456794   -1.84032702
 C          0.06870100   -1.04691303    0.02719500
 O          1.20335901   -1.67060804   -0.54021800
 C          0.02454400    0.46010301   -0.28543001
 C         -1.34714198    1.03682804    0.07520900
 C         -1.50126004    2.49835896   -0.30762500
 O         -1.35829902    2.71487999   -1.70899296
 O         -2.39378810    0.34017500   -0.61008900
 O          0.98826599    1.17712402    0.45741701
 O         -2.78003192   -1.25110805    1.05796504
 H         -1.49082804    0.95418698    1.15993094
 H         -3.24241209   -1.44487596   -0.94618201
 H          0.05616800   -1.15838599    1.11950505
 H          0.18830401    0.58123302   -1.36413503
 C         -4.05283499   -0.71526998    1.41246796
 H         -0.06047500   -2.32783890   -1.97247601
 H         -2.48272610    2.84750700    0.03401700
 H         -0.72866797    3.08696508    0.18617199
 H          1.89771998    0.97183001    0.12199100
 H          2.03074408   -1.43706203   -0.03493800
 H         -2.00726795    2.15488505   -2.15208602
 H         -4.82660103   -1.07928300    0.72671300
 H         -4.04190922    0.37792501    1.39556503
 H         -4.26938820   -1.06069398    2.42309189
 O          3.53616500    0.82115799   -0.25002399
 O          3.50693703   -1.22284698    0.65038198
 C          5.61735296   -0.12908600    0.42505801
 C          4.10477400   -0.17606901    0.27111799
 H          5.94780493   -0.77402300    1.23983705
 H          5.95863008    0.89365298    0.58942401
 H          6.06754923   -0.49258301   -0.50372499
