33
wb97x-d4 ma-def2-tzvp(-f) cpcm(dmso) E: -955.172682526798, G: -954.95014699
 C         -2.35785794   -1.21041095   -0.24312501
 C         -1.08040094   -1.91059005    0.08457000
 O         -0.57954299   -2.67175007   -0.93092602
 C         -0.06239000   -1.13876104    0.88693601
 O          1.15434504   -1.86371696    0.92609298
 C          0.09299000    0.25694799    0.26774499
 C         -1.28838396    0.89571601    0.08605000
 C         -1.20597196    2.26910496   -0.57070100
 O         -0.64762598    3.24286008    0.30387500
 O         -2.09829211    0.09052900   -0.77222598
 O          0.88520998    1.10220504    1.08629298
 O         -3.13542199   -1.14265895    0.92445397
 H         -1.76955700    1.00209498    1.06622398
 H         -2.89997005   -1.72746694   -1.04247403
 H         -0.43014699   -1.00113297    1.91085005
 H          0.55120099    0.15192001   -0.72485000
 C         -4.41172695   -0.54347599    0.71140599
 H          0.34058100   -2.86566806   -0.67628503
 H         -0.62137902    2.19314694   -1.49726999
 H         -2.21557999    2.59727502   -0.82812601
 H          1.83536994    1.05744398    0.77306700
 H          1.85694802   -1.41379094    0.38372999
 H          0.11854300    2.80757093    0.71550500
 H         -4.97316694   -0.66252297    1.63777697
 H         -4.94051123   -1.04796696   -0.10553300
 H         -4.31659794    0.51995301    0.47666299
 O          3.36507702    1.10553896    0.25550601
 O          3.16189599   -0.97308600   -0.54228902
 C          5.20328379    0.18653999   -0.95436502
 C          3.79881406    0.10232900   -0.37700799
 H          5.29339504   -0.43186301   -1.84806502
 H          5.90360212   -0.19516701   -0.20511800
 H          5.47326899    1.21885300   -1.17838097
