33
wb97x-d4 ma-def2-tzvp(-f) cpcm(dmso) E: -955.172097019323, G: -954.9501127
 C         -1.70940304   -1.07119799    0.16720000
 C         -0.28912199   -1.14419699    0.64565200
 O          0.49258599   -1.86052799   -0.19814201
 C          0.20580401    0.15819401    1.22410297
 O          1.53872001    0.15146400    1.69047296
 C         -0.01131800    1.25964701    0.17675200
 C         -1.47937799    1.27876997   -0.24741700
 C         -1.74987805    2.28268909   -1.35122800
 O         -3.13477206    2.33971691   -1.68300498
 O         -1.86441398    0.00289800   -0.76703298
 O          0.31216800    2.53969789    0.70848697
 O         -2.55688691   -0.91390401    1.27418602
 H         -2.09660292    1.52626896    0.62467003
 H         -1.97725499   -1.96638894   -0.40380600
 H         -0.42672300    0.40310699    2.08360004
 H          0.61431497    1.04385400   -0.70050400
 C         -3.93877006   -0.91216099    0.92203200
 H          1.47047400   -1.86833203    0.03709700
 H         -1.46074295    3.27908492   -1.01730204
 H         -1.15146101    2.01861191   -2.23223495
 H          1.13596499    2.43229604    1.20227695
 H          2.17183900    0.06345500    0.92975700
 H         -3.40800691    1.44381797   -1.91649604
 H         -4.50188684   -0.92200202    1.85478902
 H         -4.18658400   -1.80393302    0.33500800
 H         -4.20103121   -0.01963000    0.34760001
 O          3.05513000   -2.20664001    0.01819300
 O          3.44469094   -0.01827900   -0.17161401
 C          5.21062899   -1.52073395   -0.74823302
 C          3.79635906   -1.22540796   -0.27461201
 H          5.86840010   -1.53197396    0.12606999
 H          5.56112909   -0.74153799   -1.42566001
 H          5.26602697   -2.49672508   -1.23065901
