33
wb97x-d4 ma-def2-tzvp(-f) cpcm(dmso) E: -955.170840030246, G: -954.95006233
 C         -2.44901204   -1.08614302   -0.24023600
 C         -1.15041101   -1.78672397   -0.46822101
 O         -1.05292702   -2.38256693   -1.69419003
 C          0.08240700   -1.08363104    0.02510200
 O          1.20114994   -1.76667905   -0.50326103
 C          0.04738000    0.39013699   -0.42240900
 C         -1.31578004    1.00903201   -0.09182200
 C         -1.42176700    2.43171406   -0.61195803
 O         -2.62827897    3.07724905   -0.20701300
 O         -2.37228203    0.26063100   -0.69831002
 O          1.04046595    1.15118504    0.23269700
 O         -2.75279498   -1.15178895    1.12992799
 H         -1.44563103    1.01497304    0.99857199
 H         -3.25046706   -1.53485703   -0.83761799
 H          0.09444100   -1.08821499    1.12318099
 H          0.18851399    0.41385400   -1.51297402
 C         -4.01139021   -0.56375599    1.45030200
 H         -0.10773300   -2.56226492   -1.83340597
 H         -0.54838902    2.99741292   -0.27931201
 H         -1.43183994    2.41448593   -1.70481396
 H          1.93781602    0.90236098   -0.10774100
 H          2.03743100   -1.49642706   -0.03267000
 H         -2.58878708    3.20503497    0.74783599
 H         -4.80201721   -0.97939599    0.81484503
 H         -3.98516202    0.52242798    1.32825899
 H         -4.21635485   -0.80730700    2.49263000
 O          3.55402088    0.69686002   -0.53131598
 O          3.52588797   -1.22249305    0.61117703
 C          5.64340496   -0.19559699    0.18188800
 C          4.12612009   -0.24251901    0.08655300
 H          6.06055021   -0.42244601   -0.80353898
 H          6.01987696   -0.92301100    0.90076101
 H          5.97155809    0.80846500    0.45707899
