33
wb97x-d4 ma-def2-tzvp(-f) cpcm(dmso) E: -955.172165963232, G: -954.94987786
 C         -2.28585601   -1.12854004   -0.01225700
 C         -1.09221900   -1.74664402   -0.66522503
 O         -1.37460196   -2.42830706   -1.81473196
 C          0.17459100   -0.93667001   -0.67118800
 O          1.11432397   -1.55394304   -1.52528405
 C         -0.16977000    0.48159000   -1.14486599
 C         -1.32425702    1.03699005   -0.30035099
 C         -1.73963106    2.43688798   -0.73647797
 O         -0.74166602    3.40602708   -0.43414301
 O         -2.48157597    0.21271400   -0.46184400
 O          0.95213002    1.35054898   -1.11568499
 O         -2.09908104   -1.17714500    1.37867606
 H         -1.02500403    1.06720197    0.75505102
 H         -3.20476699   -1.65098500   -0.29984200
 H          0.56634200   -0.86777902    0.35117301
 H         -0.51296097    0.42055899   -2.18514609
 C         -3.22991610   -0.70750600    2.10945606
 H         -0.52217299   -2.58487511   -2.25496101
 H         -1.96334100    2.42737293   -1.81168103
 H         -2.64831090    2.72069502   -0.20054600
 H          1.60373294    1.05469096   -0.42123899
 H          2.01901197   -1.39247799   -1.13949299
 H          0.10227200    2.99934101   -0.69568098
 H         -4.13878393   -1.22657204    1.78353703
 H         -3.36498690    0.36992601    1.98222995
 H         -3.04055309   -0.92998999    3.15930104
 O          2.80145192    0.70278001    0.66430497
 O          3.46427608   -1.14608204   -0.41263899
 C          4.89465189   -0.25310701    1.27458096
 C          3.61660695   -0.23653901    0.44943601
 H          5.31731319   -1.25664496    1.32658696
 H          4.70892382    0.13239200    2.27793503
 H          5.62383080    0.40408999    0.79101402
