33
wb97x-d4 ma-def2-tzvp(-f) cpcm(dmso) E: -955.170428027534, G: -954.94978534
 C         -1.69431603   -1.11513102    0.20575900
 C         -0.26489699   -1.16346800    0.66127598
 O          0.50601602   -1.89771199   -0.17641801
 C          0.22113000    0.16544200    1.18097401
 O          1.55647802    0.19858700    1.63871706
 C         -0.01811000    1.22404099    0.09513700
 C         -1.49110699    1.21227396   -0.32084200
 C         -1.76413202    2.18098307   -1.45804405
 O         -3.15403509    2.30895209   -1.75161695
 O         -1.87009096   -0.08822800   -0.77310503
 O          0.30004200    2.52212501    0.58600497
 O         -2.52091694   -0.91000497    1.32177198
 H         -2.09835291    1.49732697    0.54858702
 H         -1.97045803   -2.03688097   -0.31766099
 H         -0.40801701    0.43720800    2.03482509
 H          0.60474402    0.98622602   -0.77860600
 C         -3.90855908   -0.92381501    0.99586099
 H          1.49098396   -1.88815796    0.03426000
 H         -1.32973099    3.15371299   -1.21104205
 H         -1.28759098    1.80674398   -2.36746693
 H          1.11572897    2.42587399    1.09577096
 H          2.18802309    0.05794800    0.88536900
 H         -3.57634592    2.74561691   -1.00256503
 H         -4.45457888   -0.89322501    1.93846905
 H         -4.16646719   -1.84046805    0.45285901
 H         -4.18210793   -0.05726100    0.38781500
 O          3.43970990   -0.05459700   -0.24155401
 O          3.06266809   -2.23365903    0.03906200
 C          5.20557404   -1.57797694   -0.77844799
 C          3.79765296   -1.26207101   -0.30130500
 H          5.21870089   -2.50628304   -1.35080695
 H          5.84224510   -1.71455705    0.10082600
 H          5.61012220   -0.75956398   -1.37386203
