33
wb97x-d4 ma-def2-tzvp(-f) cpcm(dmso) E: -955.169555752089, G: -954.94951566
 C         -1.75650799   -0.98588699    0.02932200
 C         -0.32427201   -1.15435898   -0.37634301
 O          0.23438600   -2.28654504    0.10654100
 C          0.52379400    0.06264000   -0.61058402
 O          1.61484003   -0.15367000   -1.50544703
 C         -0.31612101    1.17649996   -1.21847904
 C         -1.64408696    1.32647705   -0.48961401
 C         -2.52912402    2.41359091   -1.08918798
 O         -2.05366492    3.72341990   -0.80218899
 O         -2.36603308    0.10395000   -0.63225299
 O          0.37647900    2.42345095   -1.16220701
 O         -1.82057595   -0.83262902    1.43565905
 H         -1.47081900    1.54658103    0.57032102
 H         -2.34921908   -1.86359596   -0.25754401
 H          0.92234898    0.42656800    0.35262299
 H         -0.52879000    0.91786897   -2.26317811
 C         -3.15139198   -0.90254098    1.93900204
 H          1.24460495   -2.25749493    0.07420300
 H         -2.61412406    2.25523996   -2.17218208
 H         -3.52555895    2.33010602   -0.65035301
 H          1.18217897    2.33435392   -1.68521798
 H          2.18986106   -0.84025699   -1.11108899
 H         -1.12100196    3.74071097   -1.06133902
 H         -3.74204397   -0.03853600    1.62067604
 H         -3.08138490   -0.91178203    3.02696609
 H         -3.64375710   -1.82111597    1.59822595
 O          3.02944803   -2.08168292    2.17584991
 O          2.81140089   -2.09348202   -0.04775800
 C          4.85821009   -1.28466797    0.84234899
 C          3.46497202   -1.86518598    1.03248096
 H          5.42981815   -1.91513002    0.15743700
 H          5.38568306   -1.19618201    1.79167902
 H          4.77045488   -0.29671201    0.38162699
