33
wb97x-d4 ma-def2-tzvp(-f) cpcm(dmso) E: -955.170285235326, G: -954.94944441
 C         -1.29462695   -0.79152298    0.22757401
 C          0.14885600   -0.63720000   -0.14351800
 O          0.96559000   -1.49407196    0.51053101
 C          0.65169197    0.72025001   -0.54699701
 O          1.82336295    0.68576699   -1.36092603
 C         -0.40622500    1.46349800   -1.35347605
 C         -1.76835597    1.35219598   -0.68712300
 C         -2.86495996    2.03529096   -1.48146904
 O         -4.12556601    1.92711699   -0.82664400
 O         -2.12854600   -0.03042900   -0.62102598
 O         -0.06856800    2.84002995   -1.47885096
 O         -1.46165800   -0.42123201    1.58460295
 H         -1.73016596    1.77595103    0.32315499
 H         -1.62401402   -1.83028197    0.09991700
 H          0.86394203    1.31744003    0.35718501
 H         -0.46761701    0.99774498   -2.34583712
 C         -2.76690793   -0.70537603    2.08019590
 H          1.92622304   -1.18264198    0.50146598
 H         -2.64312506    3.09795094   -1.57743299
 H         -2.91100001    1.59348404   -2.48492098
 H          0.84320599    2.87578297   -1.79518604
 H          2.56006002    0.34736401   -0.81361598
 H         -4.28483915    0.98746598   -0.67321903
 H         -3.51801991   -0.06133600    1.61373794
 H         -2.74860096   -0.51841903    3.15398002
 H         -3.02894211   -1.75432897    1.89746904
 O          5.58493280   -0.85341400    0.36843199
 O          3.37535596   -0.56046098    0.46027201
 C          4.21949387   -2.71237612    1.02689195
 C          4.43418694   -1.27136505    0.58291000
 H          5.16701508   -3.23799109    1.13895798
 H          3.60142303   -3.22903895    0.28786600
 H          3.67639303   -2.72585011    1.97509503
