33
wb97x-d4 ma-def2-tzvp(-f) cpcm(dmso) E: -955.16977794173, G: -954.94935521
 C         -2.60625911   -0.57883698   -0.21935800
 C         -1.37074196   -1.42021203   -0.16808400
 O         -1.25110495   -2.30524993   -1.20223403
 C         -0.10447800   -0.74716198    0.27685201
 O          0.95985901   -1.64137805    0.02665400
 C          0.05093800    0.57427198   -0.49634701
 C         -1.24514496    1.38070703   -0.38729101
 C         -1.19625401    2.65373397   -1.21016395
 O         -2.38647103    3.42404604   -1.05944502
 O         -2.36070299    0.63538003   -0.89682901
 O          1.09526300    1.36850297    0.02495100
 O         -3.08541298   -0.24934500    1.07135201
 H         -1.42522001    1.63539696    0.66360599
 H         -3.38784909   -1.09039605   -0.79329002
 H         -0.17274900   -0.49512699    1.34412503
 H          0.23106200    0.32947499   -1.55306697
 C         -3.59129000   -1.38442397    1.76428998
 H         -0.32139099   -2.59026003   -1.20711696
 H         -0.36764601    3.27456307   -0.87259799
 H         -1.03709602    2.39339089   -2.26432800
 H          1.97148299    0.97980100   -0.23088101
 H          1.80599904   -1.31845105    0.44339699
 H         -3.12650895    2.84819102   -1.28783000
 H         -3.99112701   -1.02552295    2.71241212
 H         -2.80054212   -2.11748791    1.95504606
 H         -4.39226389   -1.86460996    1.18911397
 O          3.31142497   -1.01603401    1.02033699
 O          3.55593991    0.52805299   -0.57519102
 C          5.52849722   -0.43368000    0.38642499
 C          4.01899195   -0.29061300    0.26486400
 H          5.82618380   -0.28442800    1.42691803
 H          6.05051279    0.27851799   -0.25200900
 H          5.81409883   -1.45081401    0.10571900
