33
wb97x-d4 ma-def2-tzvp(-f) cpcm(dmso) E: -955.170458166092, G: -954.94914255
 C         -1.42820704   -0.94525802    0.43328300
 C          0.04044000   -0.75711399    0.19816899
 O          0.55585700   -1.65465295   -0.67683798
 C          0.45793599    0.69203103    0.10922800
 O          1.79278195    0.89129198   -0.29963899
 C         -0.43920299    1.37078500   -0.92646497
 C         -1.91652405    1.15394795   -0.59909099
 C         -2.84211993    1.72553301   -1.66923594
 O         -2.86426091    3.14861989   -1.67087102
 O         -2.19789505   -0.24419700   -0.54789001
 O         -0.20309700    2.77931094   -0.96793503
 O         -1.73174703   -0.50094599    1.73029602
 H         -2.14745402    1.62519801    0.36400601
 H         -1.71650398   -1.99371803    0.30271000
 H          0.26542401    1.17280495    1.07874298
 H         -0.22829799    0.92794102   -1.90864396
 C         -3.09851909   -0.69734699    2.08483911
 H          1.55855703   -1.61217499   -0.71446401
 H         -2.54170990    1.33680296   -2.65081811
 H         -3.86040092    1.38896406   -1.46361899
 H          0.73130602    2.90815997   -1.17239797
 H          2.39617991    0.32806799    0.25597599
 H         -1.94098604    3.44105911   -1.67191696
 H         -3.18630791   -0.46044099    3.14496493
 H         -3.39371896   -1.73957598    1.91696596
 H         -3.75655389   -0.04022700    1.50975394
 O          3.15081191   -1.98767996   -0.65839797
 O          3.51480103   -0.59738898    1.05290794
 C          5.07962513   -2.36476493    0.69414002
 C          3.82535505   -1.58527100    0.33115101
 H          4.79878807   -3.14955401    1.40315199
 H          5.81511116   -1.71908605    1.17480505
 H          5.51053715   -2.84111905   -0.18686900
