33
wb97x-d4 ma-def2-tzvp(-f) cpcm(dmso) E: -955.169756141146, G: -954.9490561599999
 C         -2.60725999   -0.55934101   -0.24373101
 C         -1.37345600   -1.40535104   -0.24023700
 O         -1.25418901   -2.22573400   -1.32631004
 C         -0.10654000   -0.76235503    0.24638200
 O          0.95644701   -1.64304698   -0.05270400
 C          0.05231900    0.59961498   -0.45017901
 C         -1.24039805    1.40254402   -0.29119301
 C         -1.18712103    2.72437501   -1.03226805
 O         -2.37116194    3.49083710   -0.82592499
 O         -2.35837197    0.69372302   -0.84485400
 O          1.10210204    1.35792696    0.11165200
 O         -3.08983397   -0.31020901    1.06356704
 H         -1.41899300    1.59241295    0.77358800
 H         -3.38761902   -1.03394902   -0.85036302
 H         -0.17649400   -0.57129800    1.32616401
 H          0.22748800    0.41511300   -1.51998198
 C         -3.60446811   -1.48512006    1.67915702
 H         -0.32492101   -2.51124001   -1.34834695
 H         -0.35280600    3.31732512   -0.66031802
 H         -1.03480101    2.52992296   -2.10166597
 H          1.97464895    0.98282999   -0.17536300
 H          1.80403602   -1.34052598    0.37536001
 H         -3.11635089    2.93639994   -1.08789396
 H         -4.40349817   -1.92398906    1.06916106
 H         -4.00917101   -1.18646801    2.64596295
 H         -2.81773806   -2.23240304    1.82716703
 O          3.31744099   -1.07001698    0.96743101
 O          3.54895306    0.54432702   -0.55823100
 C          5.53066015   -0.46263099    0.31746301
 C          4.01928091   -0.31032199    0.24151701
 H          6.03254509    0.46480501    0.04015600
 H          5.83137321   -1.24087095   -0.39069900
 H          5.83790302   -0.77728200    1.31553400
