33
wb97x-d4 ma-def2-tzvp(-f) cpcm(dmso) E: -955.173160922545, G: -954.95108867
 C         -2.50396705   -1.18107402   -0.18237600
 C         -1.17808795   -1.86112106   -0.29055199
 O         -0.99756998   -2.53048491   -1.46723497
 C          0.01504600   -1.10465395    0.22701199
 O          1.16912401   -1.79775906   -0.20168801
 C         -0.03937500    0.33127600   -0.32105601
 C         -1.42375696    0.93960899   -0.07712900
 C         -1.55693996    2.33787608   -0.67211699
 O         -0.78484601    3.29850507    0.03868700
 O         -2.43148494    0.14615300   -0.70455498
 O          0.91934901    1.16838300    0.30317801
 O         -2.89301610   -1.18073297    1.16568899
 H         -1.60758698    0.99596298    1.00293398
 H         -3.25493598   -1.67900002   -0.80544001
 H         -0.03151500   -1.04213798    1.32249296
 H          0.13400100    0.28864300   -1.40542305
 C         -4.18412590   -0.61255801    1.37451696
 H         -0.04093300   -2.68671203   -1.54545200
 H         -1.26724398    2.30894399   -1.73105705
 H         -2.60307193    2.64657593   -0.61113697
 H          1.82597005    0.98851001   -0.07587300
 H          1.99666405   -1.40284503    0.18716501
 H          0.07710700    2.87547493    0.19223399
 H         -4.44852877   -0.80654800    2.41376901
 H         -4.92153120   -1.08394301    0.71460903
 H         -4.17679214    0.46586999    1.19480896
 O          3.36875105    0.86373103   -0.58943403
 O          3.51283312   -0.96911597    0.67914301
 C          5.54516315    0.06925400   -0.01904600
 C          4.02804899   -0.01378700    0.03513900
 H          5.98984098   -0.36355501    0.87762600
 H          5.87520313    1.10056806   -0.14714900
 H          5.88820696   -0.50930297   -0.88228297
