33
wb97x-d4 ma-def2-tzvp(-f) cpcm(dmso) E: -955.169886674107, G: -954.94899299
 C         -2.24253893   -1.06803203    0.00079200
 C         -1.07292998   -1.74884105   -0.63200599
 O         -1.38106298   -2.46447110   -1.75487602
 C          0.21253000   -0.97326100   -0.67406201
 O          1.13754594   -1.65649295   -1.49454606
 C         -0.07538400    0.43922800   -1.20779705
 C         -1.22995698    1.06048906   -0.40517300
 C         -1.59076405    2.44007397   -0.92352498
 O         -2.57096410    3.09662008   -0.12049700
 O         -2.40456700    0.24893101   -0.51695299
 O          1.07535398    1.25892305   -1.17960596
 O         -2.04223800   -1.05355203    1.39227903
 H         -0.93203902    1.13860703    0.64959103
 H         -3.17839408   -1.57984304   -0.24977501
 H          0.60414201   -0.86992002    0.34543899
 H         -0.39812899    0.34794801   -2.25303292
 C         -3.14601207   -0.50080401    2.10547495
 H         -0.53527701   -2.66047001   -2.19181395
 H         -0.68089801    3.04104400   -0.99235803
 H         -2.02482104    2.34584188   -1.92231905
 H          1.68847799    0.95959997   -0.46156099
 H          2.04488611   -1.51395798   -1.10702097
 H         -2.17132711    3.29214001    0.73500103
 H         -4.07777596   -1.00179601    1.81791699
 H         -3.24195504    0.57211202    1.91882098
 H         -2.95364094   -0.67100501    3.16458607
 O          2.89238191    0.56687701    0.66884297
 O          3.51188397   -1.29652202   -0.40822899
 C          5.02238417   -0.36094901    1.18552494
 C          3.70210409   -0.36915901    0.42824200
 H          5.48124409   -1.34965098    1.19488204
 H          4.87524223   -0.00273500    2.20551205
 H          5.70250702    0.33302400    0.68224198
