33
wb97x-d4 ma-def2-tzvp(-f) cpcm(dmso) E: -955.169385418002, G: -954.94887433
 C         -2.22741699   -1.08676696    0.02813700
 C         -1.05581605   -1.76633096   -0.60290003
 O         -1.36340296   -2.48817611   -1.72193396
 C          0.22814700   -0.98761898   -0.65169400
 O          1.15197003   -1.67128301   -1.47280300
 C         -0.06507600    0.42303100   -1.18805599
 C         -1.21165800    1.04013002   -0.37113699
 C         -1.57218003    2.42295289   -0.86275399
 O         -2.50310612    3.00869107    0.05024700
 O         -2.38840103    0.23058300   -0.48809999
 O          1.08480299    1.24336696   -1.17681801
 O         -2.03192210   -1.07355595    1.42039299
 H         -0.91040200    1.10556400    0.68223202
 H         -3.16233802   -1.59861195   -0.22591200
 H          0.62313098   -0.88030797    0.36629301
 H         -0.40011501    0.32859799   -2.22901511
 C         -3.13413501   -0.51109302    2.12877989
 H         -0.51749903   -2.68461299   -2.15851688
 H         -0.66117400    3.02338290   -0.92057198
 H         -2.01221108    2.34506512   -1.86462104
 H          1.70745599    0.95249999   -0.46341500
 H          2.05830002   -1.53339696   -1.08119202
 H         -2.71554589    3.89098597   -0.27306801
 H         -3.21878004    0.56271398    1.94278800
 H         -2.94871211   -0.68410200    3.18864298
 H         -4.06921291   -1.00277996    1.83591902
 O          3.51961803   -1.32323301   -0.37130600
 O          2.93834496    0.58538598    0.64706999
 C          5.03601694   -0.38523099    1.21458995
 C          3.72448611   -0.37852201    0.44211099
 H          5.45403099   -1.39005804    1.27741206
 H          4.89360523    0.02862400    2.21387291
 H          5.74919224    0.25410599    0.68532401
