33
wb97x-d4 ma-def2-tzvp(-f) cpcm(dmso) E: -955.16934275358, G: -954.94882945
 C         -1.38897502   -0.91162401    0.21436299
 C         -0.13883300   -1.17251205   -0.56769902
 O          0.52065200   -2.29307508   -0.19148700
 C          0.62647301    0.00851800   -1.08946598
 O          1.49276698   -0.30184600   -2.18022299
 C         -0.33488101    1.07729101   -1.59249997
 C         -1.44287598    1.33042598   -0.57576001
 C         -2.43617606    2.36628509   -1.07223594
 O         -3.44518590    2.66686606   -0.10990600
 O         -2.16171908    0.11315700   -0.37244600
 O          0.35974801    2.29574800   -1.83555901
 O         -1.02836597   -0.59116298    1.54758406
 H         -1.00362301    1.66820705    0.37122801
 H         -2.03921604   -1.79500604    0.22386000
 H          1.22464395    0.45152500   -0.27401099
 H         -0.79512602    0.71332902   -2.52056909
 C         -2.14989710   -0.50328499    2.42180395
 H          1.50342405   -2.22587609   -0.40494901
 H         -1.89532900    3.27066588   -1.36224604
 H         -2.95315003    1.97275698   -1.95087600
 H          1.13505495    2.07321310   -2.36684203
 H          2.19917393   -0.88548398   -1.83673894
 H         -3.02512002    3.12519503    0.62746900
 H         -2.76616812    0.37038001    2.19064999
 H         -1.75850797   -0.41145101    3.43508506
 H         -2.76570892   -1.40756500    2.35096693
 O          3.04464102   -1.98833203   -0.72902501
 O          4.93356085   -1.03275096   -0.02539300
 C          3.28042793   -1.60240698    1.61416602
 C          3.81445193   -1.52843297    0.18918200
 H          2.43840194   -0.91138399    1.71203494
 H          4.04998398   -1.33475804    2.33712506
 H          2.90545011   -2.60660911    1.82241297
