33
wb97x-d4 ma-def2-tzvp(-f) cpcm(dmso) E: -955.168983846104, G: -954.94869909
 C         -1.59517205   -1.02657998    0.16837101
 C         -0.13150600   -0.90088397    0.37611699
 O          0.55595201   -2.03252506    0.62925899
 C          0.52098501    0.41985399    0.18131600
 O          1.07625902    0.60192299   -1.13169396
 C         -0.53104597    1.50632298    0.42989600
 C         -1.79852104    1.29506302   -0.41541201
 C         -1.76439798    2.05332994   -1.73410499
 O         -1.82749999    3.44770503   -1.43497598
 O         -2.04410195   -0.07342000   -0.77037197
 O         -0.83844101    1.57387996    1.82293999
 O         -2.26589894   -0.86675602    1.42040396
 H         -2.64678407    1.66801703    0.17154200
 H         -1.86272502   -2.00376296   -0.25022700
 H          1.31664097    0.55613297    0.92388499
 H         -0.10754100    2.47623301    0.16714001
 C         -3.67656302   -1.07068205    1.33737504
 H          1.55446303   -1.85518003    0.66723102
 H         -0.84884799    1.81018305   -2.27893090
 H         -2.62859106    1.74620199   -2.33333611
 H         -1.37084198    0.78932500    2.03349090
 H          1.91229701    0.07848100   -1.15295601
 H         -1.63350296    3.93463397   -2.24311900
 H         -4.15220213   -0.30469099    0.71950901
 H         -4.06602478   -1.01219797    2.35332298
 H         -3.89388490   -2.05970311    0.91927099
 O          3.11064005   -1.78815305    0.81488198
 O          3.40648699   -0.76605099   -1.15503705
 C          5.32734585   -1.64112103   -0.03812300
 C          3.83388495   -1.36596596   -0.13577700
 H          5.89630604   -0.92793202   -0.63450199
 H          5.51621389   -2.64571190   -0.42855299
 H          5.65661621   -1.61597097    1.00116897
