33
wb97x-d4 ma-def2-tzvp(-f) cpcm(dmso) E: -955.168784290354, G: -954.94818758
 C         -2.44052410   -0.54864198    0.01620900
 C         -1.29200196   -1.34854305   -0.50954902
 O         -1.58289802   -2.12821198   -1.59256005
 C          0.05947800   -0.69501400   -0.50620103
 O          0.95941502   -1.50175405   -1.23781204
 C         -0.08724800    0.70128697   -1.12603998
 C         -1.19929504    1.45938504   -0.38952699
 C         -1.44606996    2.84860897   -0.94866300
 O         -1.82660103    2.82668495   -2.32204890
 O         -2.44921899    0.76126599   -0.50799298
 O          1.11965704    1.43650603   -1.10205805
 O         -2.39787197   -0.42587599    1.42796695
 H         -0.92696202    1.56240702    0.66853797
 H         -3.38934207   -1.00355804   -0.29256901
 H          0.40399200   -0.57238102    0.52895200
 H         -0.38837901    0.57642198   -2.17218590
 C         -2.63553596   -1.66402102    2.08578610
 H         -0.72696400   -2.41252589   -1.95601797
 H         -2.21876407    3.33979201   -0.34580299
 H         -0.52734601    3.43080401   -0.88125300
 H          1.71383405    1.09432697   -0.38804200
 H          1.85879695   -1.41739595   -0.81175601
 H         -2.61888409    2.28038502   -2.39086390
 H         -1.84893799   -2.39151692    1.85936797
 H         -3.60499907   -2.08175302    1.78754604
 H         -2.64359307   -1.45861900    3.15613508
 O          2.86879706    0.68809199    0.78349102
 O          3.29558992   -1.34533000   -0.05098700
 C          4.85629416   -0.41410199    1.49486995
 C          3.56853795   -0.35530400    0.68559802
 H          4.73922920    0.11493100    2.44159508
 H          5.64290810    0.08819100    0.92342597
 H          5.16490698   -1.44454002    1.67244804
