33
wb97x-d4 ma-def2-tzvp(-f) cpcm(dmso) E: -955.169681068474, G: -954.94814588
 C         -2.67680907   -0.55051202   -0.68241698
 C         -1.88894296   -1.68444705   -1.26387405
 O         -1.67084599   -1.56584001   -2.60695505
 C         -0.71333498   -2.11930799   -0.43991899
 O          0.03174300   -3.07878089   -1.18170500
 C          0.13538000   -0.88539600   -0.13067199
 C         -0.74599099    0.18389399    0.52756101
 C          0.01038400    1.45720196    0.87766999
 O          0.68284303    2.05534291   -0.22076701
 O         -1.81838703    0.53885102   -0.35617101
 O          1.21434999   -1.28166997    0.69511801
 O         -3.36018109   -1.03362405    0.44496000
 H         -1.15605605   -0.22136600    1.46178901
 H         -3.37831402   -0.14052700   -1.41693199
 H         -1.06040299   -2.54786491    0.50791901
 H          0.51240200   -0.48942700   -1.08131599
 C         -4.19147205   -0.05205400    1.06012201
 H         -0.93183303   -2.15547800   -2.82943010
 H         -0.70918101    2.18485308    1.26181304
 H          0.71640003    1.22430897    1.68209696
 H          1.97574997   -0.69293898    0.45833299
 H          0.92363203   -3.08582497   -0.80850798
 H          1.50905097    1.54337597   -0.36216301
 H         -4.78067112   -0.56887001    1.81712604
 H         -4.86209679    0.40199000    0.32173899
 H         -3.59508204    0.73128498    1.53521204
 O          4.72177505    0.16632301    1.03454697
 O          2.92303610    0.51190400   -0.24264500
 C          4.46621609    2.30631089   -0.01892200
 C          4.01827812    0.88538301    0.29871801
 H          3.64670110    3.00363398    0.16886900
 H          4.71413183    2.36972499   -1.08195305
 H          5.33752918    2.58954597    0.57075602
