33
wb97x-d4 ma-def2-tzvp(-f) cpcm(dmso) E: -955.168848861589, G: -954.94810855
 C         -2.43475890   -0.51684701    0.03276300
 C         -1.31304097   -1.39600897   -0.42397800
 O         -1.64011800   -2.26960802   -1.42133701
 C          0.05499100   -0.78089201   -0.50198001
 O          0.91835302   -1.67148805   -1.17749298
 C         -0.05582900    0.56410599   -1.23558199
 C         -1.15227604    1.40899301   -0.57558602
 C         -1.36504900    2.72679090   -1.29360998
 O         -2.34989095    3.52971005   -0.64777100
 O         -2.41604090    0.72825199   -0.63273603
 O          1.17322600    1.26150298   -1.26931000
 O         -2.36822891   -0.24858700    1.42220104
 H         -0.88750702    1.60430598    0.47054401
 H         -3.39823508   -0.97732401   -0.21589801
 H          0.42155099   -0.57854199    0.51261401
 H         -0.35781500    0.36118200   -2.27099705
 C         -2.65434790   -1.40013599    2.20710397
 H         -0.79833800   -2.61174607   -1.76759803
 H         -0.43616500    3.29543090   -1.29103506
 H         -1.65367198    2.52571106   -2.33334708
 H          1.73666096    0.99614298   -0.49975601
 H          1.83106101   -1.56681705   -0.78778702
 H         -3.15601611    3.00164199   -0.59547901
 H         -2.63730001   -1.08632302    3.25052094
 H         -1.90606499   -2.18393397    2.04924703
 H         -3.64668012   -1.79841995    1.96289301
 O          3.29941010   -1.41385996   -0.10370900
 O          2.89350891    0.63854402    0.69585502
 C          4.92357922   -0.43537700    1.33865404
 C          3.59700394   -0.40218800    0.59274602
 H          4.88694096    0.19823800    2.22521210
 H          5.69939089   -0.04620700    0.67218399
 H          5.19170380   -1.45624995    1.61245406
