33
wb97x-d4 ma-def2-tzvp(-f) cpcm(dmso) E: -955.169587142351, G: -954.94799584
 C         -2.30820489   -1.12934506   -0.34416801
 C         -1.06271005   -1.91167295   -0.08522600
 O         -0.57626802   -2.56307101   -1.18224096
 C         -0.03499300   -1.26653397    0.80876100
 O          1.16281497   -2.02526212    0.78772902
 C          0.18555500    0.19272800    0.37783000
 C         -1.16774595    0.89605802    0.21234800
 C         -0.99464202    2.30814099   -0.30186599
 O         -2.25515795    2.97870898   -0.23842700
 O         -1.98693597    0.20183200   -0.73404598
 O          0.95392698    0.88524199    1.33952904
 O         -3.09780407   -1.15154397    0.81856900
 H         -1.67468095    0.93064302    1.18449700
 H         -2.86208510   -1.54001200   -1.19571805
 H         -0.41696101   -1.23999906    1.83608699
 H          0.69402099    0.19470400   -0.59582698
 C         -4.34721613   -0.48505601    0.65151000
 H          0.33166200   -2.82499599   -0.94836098
 H         -0.25403199    2.81922412    0.31756401
 H         -0.62973702    2.26993895   -1.33554196
 H          1.90607500    0.84290802    1.05908096
 H          1.87097597   -1.55962896    0.26664701
 H         -2.12112093    3.88428092   -0.53858501
 H         -4.92438078   -0.66464800    1.55820203
 H         -4.88599110   -0.89199299   -0.21208601
 H         -4.20770884    0.59042501    0.51452798
 O          3.48701596    0.82360202    0.57738000
 O          3.20636702   -1.05565798   -0.60347098
 C          5.27050495    0.11528700   -0.83920699
 C          3.87663698   -0.04684200   -0.24838901
 H          5.57592487    1.16192997   -0.83960098
 H          5.31325722   -0.29202700   -1.84994197
 H          5.97363710   -0.44736499   -0.21755800
