33
wb97x-d4 ma-def2-tzvp(-f) cpcm(dmso) E: -955.170850714204, G: -954.95099813
 C         -1.68911898   -0.87411898    0.03787200
 C         -0.26903799   -1.09600794   -0.38109800
 O          0.25622299   -2.24636292    0.09631200
 C          0.61657399    0.08960100   -0.63641000
 O          1.70106006   -0.17793900   -1.52567101
 C         -0.17994700    1.22633302   -1.26497900
 C         -1.49406803    1.42626905   -0.52814698
 C         -2.34295988    2.52775002   -1.13130701
 O         -3.55807805    2.69887805   -0.40732199
 O         -2.26199293    0.22453700   -0.64057600
 O          0.55677301    2.44322991   -1.22491896
 O         -1.73722100   -0.69385803    1.44245398
 H         -1.30461800    1.64898598    0.52819502
 H         -2.31419802   -1.73567796   -0.22832300
 H          1.02626395    0.45774600    0.32069501
 H         -0.40222600    0.95416099   -2.30498600
 C         -3.06723809   -0.69641203    1.95427299
 H          1.26620996   -2.25022197    0.05732700
 H         -1.80583000    3.47478700   -1.08439398
 H         -2.54840493    2.29074001   -2.18285608
 H          1.43039095    2.25418091   -1.59007299
 H          2.29006100   -0.82975399   -1.09185803
 H         -3.99679589    1.83923697   -0.38445801
 H         -2.99057603   -0.68276602    3.04156399
 H         -3.59969306   -1.60132504    1.63830805
 H         -3.62356210    0.18353100    1.61858904
 O          2.83802009   -2.14477611   -0.07101000
 O          3.09996390   -2.07364988    2.14763308
 C          4.89528704   -1.29583097    0.75838703
 C          3.50978303   -1.87990999    0.99096400
 H          5.48919916   -1.99791300    0.16787700
 H          5.40312481   -1.08954597    1.70002198
 H          4.80663586   -0.37389499    0.17791700
