33
wb97x-d4 ma-def2-tzvp(-f) cpcm(dmso) E: -955.168984356266, G: -954.94794839
 C         -1.55955994   -1.14471900    0.01825500
 C         -0.24151900   -1.46563399    0.66196400
 O          0.60850501   -2.06444502   -0.20925000
 C          0.23449799   -0.35427600    1.56255305
 O          1.42934000   -0.58483702    2.28846002
 C          0.33029699    0.92372102    0.71730000
 C         -1.02722502    1.19530594    0.06763500
 C         -0.98824799    2.38110399   -0.87701499
 O         -2.27616692    2.65961599   -1.42012203
 O         -1.44613504    0.07801000   -0.72122598
 O          0.66362399    2.04419398    1.52738404
 O         -2.55118990   -1.06054401    1.00316203
 H         -1.76358497    1.38581896    0.85794199
 H         -1.82110095   -1.89083600   -0.73977000
 H         -0.54483300   -0.18336000    2.31111908
 H          1.08861899    0.78458899   -0.06523400
 C         -3.85119390   -0.82474399    0.46681601
 H          1.57991099   -1.91804600    0.01870300
 H         -0.67014402    3.27224112   -0.33557299
 H         -0.26677999    2.17884994   -1.67877603
 H          1.37175000    1.75106895    2.11643291
 H          2.12814999   -0.91552401    1.68333304
 H         -2.59043694    1.84535599   -1.83233702
 H         -4.55577087   -0.92523199    1.29194105
 H         -4.08646679   -1.56287396   -0.30852500
 H         -3.92721295    0.18008199    0.04244500
 O          3.07107997   -1.57046199    0.39142001
 O          4.82503414   -0.25697100   -0.02604800
 C          3.35393310   -0.78439099   -1.84187198
 C          3.80305696   -0.86063600   -0.38961399
 H          4.08069420   -0.24737900   -2.45027399
 H          2.38900995   -0.27270600   -1.89323604
 H          3.21007109   -1.79234195   -2.23798895
