33
wb97x-d4 ma-def2-tzvp(-f) cpcm(dmso) E: -955.169050803778, G: -954.9478981899999
 C         -2.10968709   -1.13703203   -0.15853100
 C         -0.77423400   -1.75532901    0.09233800
 O         -0.26006401   -2.42223501   -0.98125899
 C          0.20905200   -0.92831498    0.87432998
 O          1.45518506   -1.60861397    0.83049703
 C          0.27210000    0.48418400    0.26185900
 C         -1.14589906    1.03451395    0.09552400
 C         -1.15886199    2.38230491   -0.60000902
 O         -2.48174310    2.90381289   -0.70120603
 O         -1.94333506    0.16684601   -0.71719700
 O          0.98651201    1.38900495    1.08396399
 O         -2.81396604   -1.09523404    1.05317295
 H         -1.60774398    1.13610899    1.08493400
 H         -2.66939807   -1.69168198   -0.91946399
 H         -0.13850801   -0.81738502    1.90967906
 H          0.74064100    0.40818200   -0.73026103
 C         -4.13252687   -0.56856698    0.91433299
 H          0.69332302   -2.50990605   -0.80031502
 H         -0.57562298    3.09869790   -0.02337900
 H         -0.70811200    2.27887797   -1.59529102
 H          1.93942797    1.14024305    1.02849996
 H          2.20019794   -0.96051598    0.87123102
 H         -3.01986694    2.22667003   -1.12976694
 H         -4.10976982    0.49765199    0.67388201
 H         -4.63145924   -0.71498001    1.87190604
 H         -4.67853785   -1.10459805    0.12956600
 O          3.38220596    0.25356501    0.81722498
 O          4.26238918    1.57559705   -0.75297701
 C          4.59506512   -0.79154199   -0.94194901
 C          4.04581022    0.45388100   -0.25999099
 H          5.09614611   -0.54438299   -1.87747502
 H          3.77968907   -1.49354100   -1.13350999
 H          5.30159092   -1.28628302   -0.27035999
