33
wb97x-d4 ma-def2-tzvp(-f) cpcm(dmso) E: -955.168989378192, G: -954.94783873
 C         -1.57231605   -1.14063501   -0.11220100
 C         -0.26147100   -1.54857898    0.49800301
 O          0.58358598   -2.06580091   -0.42916301
 C          0.22758600   -0.54903001    1.51597404
 O          1.41779101   -0.87481600    2.21321511
 C          0.34235200    0.81290400    0.81841600
 C         -1.00807095    1.17213798    0.19568600
 C         -0.94679803    2.45434809   -0.61296999
 O         -2.22610497    2.81169009   -1.12994301
 O         -1.43770397    0.15385400   -0.71247202
 O          0.68265700    1.83167398    1.75098705
 O         -2.56750011   -1.15248096    0.87270898
 H         -1.74538195    1.28547800    0.99964100
 H         -1.83982003   -1.79717600   -0.94699699
 H         -0.55178100   -0.45217499    2.27747703
 H          1.10338295    0.75398099    0.02865800
 C         -3.86246991   -0.84481502    0.36117500
 H          1.55422497   -1.93228996   -0.19882300
 H         -0.61936498    3.27514791    0.02517900
 H         -0.22214200    2.33008194   -1.42764699
 H          1.38990402    1.46925199    2.30137300
 H          2.11915302   -1.12270296    1.57073200
 H         -2.55035210    2.05231404   -1.63019705
 H         -3.92196393    0.19701400    0.03465800
 H         -4.56997395   -1.01229894    1.17277300
 H         -4.10838079   -1.50168395   -0.48096499
 O          4.70744801   -0.12411500    0.01695700
 O          3.04780293   -1.60249496    0.20645900
 C          3.35648394   -0.56054503   -1.91454506
 C          3.75302601   -0.75976998   -0.45824099
 H          2.35105491   -0.13282301   -1.95758796
 H          3.32100892   -1.52720499   -2.42235589
 H          4.05413723    0.10155800   -2.42596698
