33
wb97x-d4 ma-def2-tzvp(-f) cpcm(dmso) E: -955.169543533302, G: -954.94777943
 C         -2.54322004   -0.62097597    0.02326500
 C         -1.39633405   -1.43784297   -0.47853100
 O         -1.69337797   -2.25755501   -1.52972400
 C         -0.04629000   -0.78299898   -0.50954902
 O          0.84870100   -1.60980999   -1.22249305
 C         -0.21244700    0.58670598   -1.17972195
 C         -1.31834698    1.37210000   -0.46082100
 C         -1.56398702    2.73671508   -1.09421599
 O         -0.46613199    3.61904407   -0.88903701
 O         -2.56334996    0.66878498   -0.55551201
 O          0.99721199    1.32773602   -1.22044301
 O         -2.48779392   -0.44014600    1.42788804
 H         -1.04431498    1.51226997    0.59203500
 H         -3.49318004   -1.08977795   -0.25887600
 H          0.30676401   -0.61880100    0.51684099
 H         -0.53234100    0.42264000   -2.21624994
 C         -2.71812201   -1.65075099    2.13862300
 H         -0.84109199   -2.55645108   -1.88933504
 H         -1.76722705    2.60549808   -2.16551399
 H         -2.44328308    3.19171309   -0.63255900
 H          1.60242605    1.06268799   -0.47132000
 H          1.75765097   -1.48363197   -0.82993299
 H          0.32996801    3.08470988   -1.05547404
 H         -3.69017291   -2.08044505    1.86765301
 H         -2.71492410   -1.39984596    3.19915605
 H         -1.93327296   -2.38664198    1.93432295
 O          2.75985289    0.76777399    0.65219700
 O          3.21331191   -1.28035200   -0.13065501
 C          4.79431820   -0.26151699    1.33686399
 C          3.48306894   -0.26277500    0.56554300
 H          4.68440723    0.27531400    2.28009105
 H          5.54441500    0.26355901    0.73752999
 H          5.14711523   -1.27693403    1.51795197
