33
wb97x-d4 ma-def2-tzvp(-f) cpcm(dmso) E: -955.16850843423, G: -954.94775815
 C         -2.61938190   -0.78396201   -0.82060403
 C         -1.29200804   -1.44471502   -0.70187098
 O         -1.30435205   -2.80053091   -0.80663699
 C         -0.05255400   -0.80027002   -0.18770900
 O          1.05042601   -1.48415804   -0.76332700
 C         -0.08176800    0.68923402   -0.51487601
 C         -1.44205904    1.24993205   -0.10722000
 C         -1.59128404    2.73523808   -0.39099899
 O         -1.44731700    3.04162192   -1.77472103
 O         -2.50178504    0.62185299   -0.84400600
 O          0.90449399    1.40460503    0.20127600
 O         -3.57896399   -1.22972298    0.12928700
 H         -1.57432306    1.09912205    0.97058898
 H         -3.08738589   -1.05561101   -1.77194297
 H          0.00605500   -0.89204198    0.91211998
 H          0.04821400    0.80894101   -1.59766698
 C         -3.20217395   -1.12154198    1.49950302
 H         -0.37276700   -3.07815695   -0.79855502
 H         -2.57169795    3.06266093   -0.02633100
 H         -0.81740302    3.28586006    0.14227401
 H          1.80648303    1.06613803   -0.02447400
 H          1.84222806   -1.38026798   -0.16560499
 H         -2.09486890    2.50802398   -2.25182104
 H         -3.94022107   -1.68391502    2.07183194
 H         -3.21467304   -0.08052100    1.83421803
 H         -2.21194601   -1.55088496    1.67938197
 O          3.48412395    0.74662799   -0.18876100
 O          3.21782494   -1.27879500    0.71913701
 C          5.40365314   -0.32634601    0.74442703
 C          3.92083597   -0.27547100    0.40595901
 H          5.92682505   -0.81662297   -0.08214300
 H          5.57431793   -0.91341603    1.64751601
 H          5.81345320    0.67709303    0.86174899
