33
wb97x-d4 ma-def2-tzvp(-f) cpcm(dmso) E: -955.170289447084, G: -954.94759247
 C         -1.97526503   -1.26740694    0.00298700
 C         -0.62561500   -1.66105103    0.52272201
 O          0.13206200   -2.30457997   -0.40219599
 C          0.02559700   -0.58971798    1.35467100
 O          1.24802697   -0.99286300    1.93372405
 C          0.14447500    0.62596798    0.42222399
 C         -1.26377499    1.02887106   -0.03308500
 C         -1.25360703    2.21409893   -0.99215400
 O         -0.93635601    3.43620491   -0.33552399
 O         -1.87049699   -0.04928100   -0.74882799
 O          0.77312499    1.73965096    1.05490398
 O         -2.85527492   -1.12767994    1.08372998
 H         -1.86986399    1.28835297    0.84425002
 H         -2.35596704   -1.99349797   -0.72342700
 H         -0.65908402   -0.31891900    2.16549706
 H          0.71955103    0.34786800   -0.46744901
 C         -4.18955708   -0.82591599    0.68322599
 H          1.09867096   -2.06623101   -0.34659201
 H         -0.55043900    2.01358604   -1.81106400
 H         -2.25283194    2.32720494   -1.41787195
 H          1.72515297    1.56670797    1.01819301
 H          1.99910200   -0.66153097    1.37684202
 H         -0.13393000    3.26439095    0.18024901
 H         -4.80777979   -0.88100702    1.57898903
 H         -4.54426289   -1.55726099   -0.05227300
 H         -4.25621605    0.17765500    0.25479099
 O          2.69029808   -1.72128296   -0.81758898
 O          3.19360089    0.03716300    0.46759000
 C          4.59684610   -0.40501100   -1.40518105
 C          3.40472507   -0.72798198   -0.51931500
 H          4.83599615   -1.23714495   -2.06683707
 H          5.46326303   -0.15001801   -0.79259300
 H          4.34983397    0.47065899   -2.01261210
