33
wb97x-d4 ma-def2-tzvp(-f) cpcm(dmso) E: -955.16868992785, G: -954.9474493
 C         -2.53202391   -1.12410104   -0.18830000
 C         -1.27927601   -1.87185395   -0.50208002
 O         -1.24022496   -2.38156509   -1.76672995
 C          0.00723900   -1.26822805   -0.00563500
 O          1.06299698   -2.01371598   -0.59281898
 C          0.02769200    0.22145800   -0.39289901
 C         -1.28396404    0.89649600    0.02259400
 C         -1.35741198    2.34912896   -0.43852499
 O         -0.45302001    3.19085598    0.26678401
 O         -2.40070701    0.24360099   -0.58029997
 O          1.08428895    0.92898297    0.24438199
 O         -2.78744698   -1.24426794    1.18500698
 H         -1.37171495    0.86434501    1.11546004
 H         -3.37571502   -1.49710405   -0.77886599
 H          0.04764400   -1.32430005    1.08994496
 H          0.12306300    0.29082799   -1.48571706
 C         -4.01129723   -0.62854099    1.58178699
 H         -0.30004400   -2.56668901   -1.94338000
 H         -1.17043495    2.39226007   -1.51971996
 H         -2.36635995    2.72257805   -0.25010899
 H          1.93995595    0.60814101   -0.13948099
 H          1.87811697   -1.46065998   -0.67930400
 H          0.38926899    2.70829606    0.29585901
 H         -3.95317411    0.45992601    1.49733996
 H         -4.17850924   -0.90396202    2.62269998
 H         -4.84143782   -0.99546599    0.96730500
 O          4.94019890   -1.55855405   -0.40041000
 O          3.12210488   -0.33524400   -0.82234901
 C          4.89712620    0.71701199    0.35844001
 C          4.29478788   -0.49783200   -0.33335799
 H          4.96790981    1.54199004   -0.35502100
 H          5.88527679    0.49642900    0.76100701
 H          4.23509312    1.03975296    1.16639197
