33
wb97x-d4 ma-def2-tzvp(-f) cpcm(dmso) E: -955.171961504615, G: -954.95090447
 C         -2.30364394   -1.07418501   -0.31561500
 C         -1.06930399   -1.86339402   -0.02821600
 O         -0.59159899   -2.56303096   -1.09816396
 C         -0.02596100   -1.21478295    0.84659803
 O          1.15254200   -2.00200200    0.82708502
 C          0.21631300    0.22862300    0.37703699
 C         -1.12952495    0.93992800    0.21551400
 C         -0.97243601    2.34644794   -0.32776201
 O         -2.22905111    3.01373291   -0.42019901
 O         -1.95987999    0.24850000   -0.72516799
 O          1.00295997    0.93902898    1.30897403
 O         -3.10981202   -1.06258202    0.83422798
 H         -1.63561904    0.98403198    1.18766296
 H         -2.84974408   -1.49286306   -1.16807199
 H         -0.40035501   -1.15473402    1.87598395
 H          0.71046299    0.19846700   -0.60377997
 C         -4.35470915   -0.39741099    0.63026702
 H          0.31710100   -2.81465292   -0.85169500
 H         -0.34731799    2.93143010    0.34537601
 H         -0.48734501    2.30121493   -1.31127596
 H          1.94958901    0.91749102    1.00326502
 H          1.89801002   -1.52355802    0.37450701
 H         -2.81122994    2.44662094   -0.94096398
 H         -4.94381618   -0.54749900    1.53461301
 H         -4.88313198   -0.82911700   -0.22763500
 H         -4.20980597    0.67315000    0.46238399
 O          3.50644112    0.97268200    0.47020501
 O          3.27897191   -1.05805397   -0.43952501
 C          5.32525682    0.10495300   -0.80793899
 C          3.92500496    0.00309100   -0.22010399
 H          6.02118397   -0.38596699   -0.12076500
 H          5.63014603    1.14567697   -0.91967797
 H          5.38030720   -0.41123900   -1.76714396
