33
wb97x-d4 ma-def2-tzvp(-f) cpcm(dmso) E: -955.168562632921, G: -954.94718195
 C         -2.31039190   -1.26503003    0.01656200
 C         -0.92258698   -1.79574895   -0.12220400
 O         -0.71969700   -2.52696204   -1.25563300
 C          0.19494800   -0.86016601    0.25532699
 O          1.40348005   -1.48361695   -0.14898799
 C         -0.04917000    0.49484500   -0.43217301
 C         -1.48973703    0.96333200   -0.19234300
 C         -1.81336999    2.24403095   -0.95765197
 O         -1.14251304    3.38099408   -0.42769501
 O         -2.42499804   -0.00993900   -0.65592200
 O          0.80339998    1.51803398    0.06825200
 O         -2.60267305   -1.14739895    1.38280797
 H         -1.63137698    1.14342201    0.88014698
 H         -3.03746510   -1.91120696   -0.48706400
 H          0.18491800   -0.68636698    1.33937299
 H          0.09994700    0.36405301   -1.51326001
 C         -3.93416190   -0.70258802    1.63300896
 H          0.24669500   -2.55085993   -1.37835300
 H         -1.56532598    2.10216498   -2.01788306
 H         -2.88613510    2.43393493   -0.87960398
 H          1.73499894    1.29834998   -0.17399600
 H          2.10829902   -0.80637902   -0.31936300
 H         -0.22415300    3.10331798   -0.28006899
 H         -4.10131884   -0.79933798    2.70550299
 H         -4.65483284   -1.32623804    1.09187198
 H         -4.06523323    0.34139201    1.33550096
 O          4.89396477    1.61243296    0.16647300
 O          3.13790107    0.46131399   -0.59196800
 C          4.99741316   -0.78232998    0.21316101
 C          4.30935001    0.54378003   -0.08180100
 H          5.13585711   -1.33157396   -0.72183502
 H          4.35930109   -1.39065695    0.85898900
 H          5.96467209   -0.62899601    0.69082898
