33
wb97x-d4 ma-def2-tzvp(-f) cpcm(dmso) E: -955.169034243507, G: -954.94711171
 C         -2.10141993   -1.15556800   -0.12897199
 C         -0.75926203   -1.75464296    0.13116799
 O         -0.24098600   -2.44021893   -0.92857999
 C          0.21805200   -0.89914799    0.89008498
 O          1.46865499   -1.57070899    0.86458099
 C          0.26830500    0.49638101    0.23902901
 C         -1.15510201    1.03040397    0.05977000
 C         -1.18130803    2.35582900   -0.67749703
 O         -2.50841188    2.86498809   -0.78603500
 O         -1.94903600    0.13349099   -0.72388101
 O          0.97355002    1.43027401    1.03698897
 O         -2.79768991   -1.08705199    1.08624005
 H         -1.61472797    1.15889895    1.04715705
 H         -2.66105294   -1.73560596   -0.87084800
 H         -0.13087700   -0.76304501    1.92199504
 H          0.73719603    0.39816400   -0.75086898
 C         -4.12014723   -0.57143700    0.94484699
 H          0.71343499   -2.51447797   -0.74665999
 H         -0.59898299    3.09412193   -0.12818900
 H         -0.73658502    2.22341204   -1.67207694
 H          1.92840600    1.19342399    0.98990101
 H          2.21238804   -0.91762400    0.88628697
 H         -3.04460001    2.17125297   -1.18975604
 H         -4.10567188    0.48950899    0.68133098
 H         -4.61181688   -0.69987297    1.90882397
 H         -4.66831398   -1.12763095    0.17571899
 O          3.38061810    0.29093799    0.82639098
 O          4.44452381    1.58315694   -0.65135002
 C          4.55621815   -0.79554498   -0.93347102
 C          4.10283613    0.46871001   -0.21624801
 H          5.17331886   -1.39213097   -0.25668901
 H          5.12535191   -0.56021202   -1.83243799
 H          3.68314195   -1.39803195   -1.19675601
