33
wb97x-d4 ma-def2-tzvp(-f) cpcm(dmso) E: -955.168791690857, G: -954.9471033899999
 C         -2.43407106   -0.54046500    0.01978300
 C         -1.30745900   -1.39488494   -0.46908900
 O         -1.63071597   -2.23792291   -1.49369705
 C          0.05652900   -0.76963502   -0.52907598
 O          0.92382997   -1.63346100   -1.23325503
 C         -0.06651300    0.59687698   -1.21946001
 C         -1.16071606    1.41225803   -0.51984698
 C         -1.38145697    2.75718689   -1.18208694
 O         -2.35381103    3.53662896   -0.48979700
 O         -2.42295408    0.73021501   -0.59533900
 O          1.15780699    1.30120206   -1.24407399
 O         -2.37067509   -0.32647401    1.41907406
 H         -0.89002901    1.56688595    0.53174001
 H         -3.39497590   -0.99606699   -0.24744400
 H          0.42389500   -0.59666800    0.49086401
 H         -0.37817401    0.42550999   -2.25782704
 C         -2.64178610   -1.51198196    2.15702009
 H         -0.78714901   -2.56279612   -1.85190701
 H         -0.45136300    3.32385111   -1.17025006
 H         -1.68658304    2.59918308   -2.22450209
 H          1.73079503    1.02012801   -0.48603800
 H          1.83767998   -1.53106999   -0.84588897
 H         -3.16269207    3.01172590   -0.45075199
 H         -1.88283396   -2.27876210    1.96900499
 H         -3.62835407   -1.91387296    1.89567196
 H         -2.62963104   -1.23936999    3.21212101
 O          2.90568709    0.65399700    0.67771697
 O          3.31240797   -1.37683403   -0.17338300
 C          4.93429089   -0.41788399    1.29732001
 C          3.61454201   -0.37986800    0.54047602
 H          5.55151796    0.42941999    0.98876703
 H          5.47331476   -1.34751403    1.11699402
 H          4.73964787   -0.30953899    2.36716008
