33
wb97x-d4 ma-def2-tzvp(-f) cpcm(dmso) E: -955.168634269518, G: -954.9470708
 C         -2.33119106   -1.22917998   -0.00413200
 C         -0.95397502   -1.78228998   -0.16105799
 O         -0.77041900   -2.49451804   -1.30975997
 C          0.18319599   -0.87705702    0.23142700
 O          1.37880802   -1.51198602   -0.19381800
 C         -0.03929100    0.49916399   -0.42063901
 C         -1.46829402    0.98848599   -0.15590601
 C         -1.77296102    2.29733896   -0.88029802
 O         -1.07496798    3.40433693   -0.32253399
 O         -2.42467904    0.04649300   -0.64068401
 O          0.83972597    1.49078596    0.09754500
 O         -2.61957788   -1.14417398    1.36553001
 H         -1.59877706    1.13905597    0.92253000
 H         -3.07102203   -1.84736001   -0.52395701
 H          0.18239100   -0.72907698    1.31932497
 H          0.09794000    0.39298400   -1.50592995
 C         -3.94211292   -0.68051201    1.62982702
 H          0.19468600   -2.53454709   -1.43833303
 H         -1.53675699    2.18215895   -1.94644201
 H         -2.84103107    2.50582600   -0.78709000
 H          1.76088297    1.26503098   -0.17913599
 H          2.08901405   -0.84240103   -0.36965200
 H         -0.16181800    3.10279608   -0.18885800
 H         -4.67525005   -1.27569604    1.07358098
 H         -4.05357981    0.37316400    1.36007500
 H         -4.10968208   -0.80229902    2.69963002
 O          3.13951206    0.41663501   -0.63642001
 O          4.88769007    1.55034304    0.16475700
 C          4.98131180   -0.84558302    0.18200999
 C          4.30287504    0.48710400   -0.10575300
 H          4.32229280   -1.47057998    0.78958100
 H          5.93163681   -0.70337898    0.69573498
 H          5.15341997   -1.37106299   -0.76115203
