33
wb97x-d4 ma-def2-tzvp(-f) cpcm(dmso) E: -955.168646976755, G: -954.94705983
 C         -2.33708596   -1.21688902   -0.03714200
 C         -0.96149302   -1.77355397   -0.19746301
 O         -0.77593201   -2.46733904   -1.35696399
 C          0.17905700   -0.88202697    0.21682100
 O          1.37289596   -1.51424396   -0.21732201
 C         -0.03499400    0.50815099   -0.40779901
 C         -1.46191001    0.99845999   -0.13507000
 C         -1.75674200    2.32718205   -0.82655501
 O         -1.05938494    3.41586995   -0.23298000
 O         -2.42117691    0.07311800   -0.64538199
 O          0.84775800    1.48509598    0.13120501
 O         -2.63460207   -1.16115201    1.33214998
 H         -1.59499502    1.12285399    0.94639200
 H         -3.07609797   -1.82010496   -0.57541299
 H          0.17568401   -0.75609100    1.30750895
 H          0.10326300    0.42346701   -1.49485004
 C         -3.95724702   -0.69809401    1.59703696
 H          0.18957700   -2.50981307   -1.48182094
 H         -1.51248503    2.24044991   -1.89358497
 H         -2.82480001    2.53680706   -0.73580801
 H          1.76820099    1.26018095   -0.14806600
 H          2.08613110   -0.84459299   -0.38022700
 H         -0.14728700    3.10859108   -0.10539800
 H         -4.68848705   -1.27818203    1.02257597
 H         -4.06278896    0.36160201    1.34951794
 H         -4.13318110   -0.84249598    2.66266608
 O          3.14234209    0.41530699   -0.62346601
 O          4.90454292    1.52416301    0.18106700
 C          4.97703314   -0.87274897    0.17025700
 C          4.30920601    0.46913901   -0.09865700
 H          5.12953281   -1.39447606   -0.77829897
 H          4.31952477   -1.49390495    0.78348398
 H          5.93593884   -0.74472702    0.67158502
