33
wb97x-d4 ma-def2-tzvp(-f) cpcm(dmso) E: -955.168612610691, G: -954.94689619
 C         -2.44946790   -0.98042399   -0.15916701
 C         -1.24181199   -1.76684105   -0.54729903
 O         -1.29214799   -2.26393008   -1.81717503
 C          0.08994300   -1.21485496   -0.11528200
 O          1.08157003   -1.99146605   -0.76907700
 C          0.15674400    0.28294501   -0.47817299
 C         -1.11001503    0.98976701    0.00773000
 C         -1.15449202    2.44264007   -0.42563000
 O         -2.31172299    3.10246992    0.08176700
 O         -2.28262591    0.38431701   -0.54442000
 O          1.25657701    0.93553001    0.13227899
 O         -2.64241195   -1.10798299    1.22358000
 H         -1.15037894    0.93904799    1.10234702
 H         -3.33453488   -1.31525195   -0.71096599
 H          0.18565100   -1.28863394    0.97612399
 H          0.21066600    0.36514300   -1.57355106
 C         -3.82218194   -0.45135599    1.68385398
 H         -0.37135601   -2.48052502   -2.04959512
 H         -0.28665099    2.97041011   -0.03278400
 H         -1.13179696    2.49146199   -1.52180505
 H          2.08169603    0.54641801   -0.24100100
 H          1.94346201   -1.50462699   -0.80392098
 H         -3.07681108    2.58212900   -0.19352899
 H         -3.94589996   -0.72493303    2.73129392
 H         -4.69477415   -0.78679299    1.11164701
 H         -3.73018789    0.63477701    1.59864902
 O          3.27965593   -0.49481100   -0.85044003
 O          4.81863594   -1.93107200   -0.10516200
 C          5.02934980    0.38132000    0.49858999
 C          4.34021711   -0.78611702   -0.19522201
 H          4.32846022    0.85596901    1.19045699
 H          5.31088781    1.13017595   -0.24595200
 H          5.91575098    0.05509800    1.04183400
