33
wb97x-d4 ma-def2-tzvp(-f) cpcm(dmso) E: -955.171067217753, G: -954.95058381
 C         -1.54580700   -0.92498797    0.10892200
 C         -0.08691600   -0.81301099    0.35278100
 O          0.58561701   -1.95019102    0.61910599
 C          0.57360399    0.51299900    0.23429500
 O          1.15942001    0.75498301   -1.05454397
 C         -0.47723800    1.59439397    0.50909001
 C         -1.73037302    1.42612696   -0.36782199
 C         -1.66523099    2.26157308   -1.63563704
 O         -2.86299300    2.14873600   -2.40135908
 O         -1.96533895    0.07289900   -0.79601800
 O         -0.81348997    1.60350800    1.89597905
 O         -2.24369502   -0.81683201    1.35162795
 H         -2.59417009    1.75610995    0.22126900
 H         -1.80885696   -1.88119197   -0.35827199
 H          1.35088897    0.61056203    1.00171697
 H         -0.03477700    2.57097507    0.30091301
 C         -3.65358901   -1.00447595    1.22662997
 H          1.58433902   -1.77787197    0.68361098
 H         -1.56385899    3.31377792   -1.36300898
 H         -0.79522997    1.96413004   -2.22887397
 H         -1.35576606    0.81443399    2.05989599
 H          1.98977196    0.22265400   -1.08287799
 H         -2.96624398    1.21745002   -2.63244009
 H         -4.11160088   -0.19505499    0.65213299
 H         -4.06386709   -1.01156294    2.23603296
 H         -3.86848211   -1.96124899    0.73821998
 O          3.13511491   -1.72398102    0.84807402
 O          3.46385407   -0.66127700   -1.09527898
 C          5.35439682   -1.62923503    0.00120500
 C          3.87136698   -1.30155003   -0.09279800
 H          5.94456291   -0.97091299   -0.63590002
 H          5.50020695   -2.66102505   -0.33215600
 H          5.69438410   -1.56089795    1.03548396
