33
wb97x-d4 ma-def2-tzvp(-f) cpcm(dmso) E: -955.169565255601, G: -954.94682657
 C         -1.92068803   -1.15435195   -0.10308800
 C         -0.61404198   -1.65992796    0.43372500
 O          0.16517100   -2.22538710   -0.53690201
 C          0.04619400   -0.70595503    1.39138901
 O          1.21785605   -1.20721805    2.00007606
 C          0.27200201    0.58890998    0.58320498
 C         -1.09703696    1.09882998    0.12548700
 C         -0.99841797    2.36215496   -0.70710498
 O         -2.28572702    2.82758093   -1.10636902
 O         -1.72366798    0.12247800   -0.71937698
 O          0.95554900    1.57638001    1.32830095
 O         -2.84168792   -1.08427799    0.94947302
 H         -1.73364902    1.28978598    0.99860299
 H         -2.29692292   -1.78786600   -0.91378099
 H         -0.65727597   -0.47946900    2.19740796
 H          0.85258502    0.34853601   -0.31474900
 C         -4.14073801   -0.67589903    0.52793902
 H          1.11379099   -2.05626798   -0.36311099
 H         -0.53960103    3.15518689   -0.11764200
 H         -0.37007001    2.16714311   -1.58548701
 H          1.89950502    1.35004902    1.19627798
 H          1.91499603   -1.28624403    1.30460000
 H         -2.72634697    2.09075594   -1.54775298
 H         -4.79634619   -0.77011299    1.39327097
 H         -4.50318623   -1.32309794   -0.27912199
 H         -4.13636303    0.36194199    0.18429001
 O          2.85658097   -1.43168294   -0.10084200
 O          3.40372992    0.68812799    0.37313101
 C          4.60070515   -0.43248099   -1.36848402
 C          3.54462004   -0.37495199   -0.27581799
 H          5.18993711   -1.34641600   -1.27243900
 H          5.25364685    0.43938500   -1.33723903
 H          4.09490490   -0.46564099   -2.33787107
