33
wb97x-d4 ma-def2-tzvp(-f) cpcm(dmso) E: -955.168573613741, G: -954.9467194
 C         -2.42878294   -0.99849898   -0.13418600
 C         -1.21675396   -1.78359699   -0.51260197
 O         -1.28022099   -2.32426500   -1.76395702
 C          0.11353700   -1.19823503   -0.12211400
 O          1.10400200   -1.98437405   -0.76514298
 C          0.15438500    0.28598401   -0.54032600
 C         -1.11756599    0.99482501   -0.06934200
 C         -1.18919802    2.42705798   -0.56480300
 O         -2.35092211    3.09114289   -0.07388800
 O         -2.28799105    0.35014200   -0.57975000
 O          1.25076306    0.97562802    0.03472500
 O         -2.59401393   -1.07021999    1.25599098
 H         -1.14364696    0.99054599    1.02685702
 H         -3.31887197   -1.36888599   -0.65442097
 H          0.22729500   -1.23123002    0.96960300
 H          0.19671300    0.32773900   -1.63867605
 C         -3.77435493   -0.41055200    1.71022606
 H         -0.36121500   -2.53945303   -2.00371099
 H         -0.32536101    2.98478889   -0.20581400
 H         -1.17920399    2.42793608   -1.66231298
 H          2.07924700    0.55991203   -0.29915500
 H          1.97125196   -1.50618398   -0.78953898
 H         -3.11062288    2.54720807   -0.31629401
 H         -3.70001888    0.67201698    1.57615399
 H         -3.87446189   -0.63993299    2.77076101
 H         -4.65254021   -0.78265101    1.17007804
 O          4.78655005   -1.93849695    0.05769300
 O          3.31055403   -0.50319397   -0.80712801
 C          4.98378611    0.38327801    0.62958199
 C          4.32528019   -0.79140502   -0.08166400
 H          5.81203890    0.05563900    1.25723505
 H          4.24064112    0.90207303    1.24069703
 H          5.34970903    1.09525895   -0.11477600
