33
wb97x-d4 ma-def2-tzvp(-f) cpcm(dmso) E: -955.168599272691, G: -954.94669054
 C         -2.45284295   -0.95258200   -0.21425401
 C         -1.24981499   -1.73223901   -0.62556398
 O         -1.30124402   -2.19004893   -1.91036797
 C          0.08477600   -1.20753598   -0.17222200
 O          1.07186699   -1.96639001   -0.85394901
 C          0.16379400    0.30268601   -0.47745901
 C         -1.09563100    0.99866498    0.03912600
 C         -1.12757301    2.46858311   -0.33055699
 O         -2.27518201    3.11786509    0.21214600
 O         -2.27330089    0.42715800   -0.53975999
 O          1.26940298    0.92205799    0.15632300
 O         -2.65777302   -1.13507903    1.16057599
 H         -1.13769805    0.90053397    1.13051200
 H         -3.33683991   -1.25432599   -0.78636402
 H          0.18030301   -1.32326400    0.91564202
 H          0.21762700    0.42760500   -1.56874597
 C         -3.83680511   -0.48948500    1.63801897
 H         -0.38091901   -2.40208411   -2.14845204
 H         -0.25285101    2.97064400    0.08078700
 H         -1.11018896    2.56616998   -1.42347002
 H          2.09113789    0.53822601   -0.23050401
 H          1.93918502   -1.48708498   -0.86463898
 H         -3.04734111    2.61855292   -0.08146000
 H         -4.70804977   -0.80045098    1.05010498
 H         -3.73906302    0.59851801    1.59164095
 H         -3.96605802   -0.79989898    2.67450500
 O          3.28394103   -0.49231100   -0.85656798
 O          4.77913284   -1.97256696   -0.10806800
 C          5.01781607    0.32145000    0.55082297
 C          4.32416487   -0.81739199   -0.18394400
 H          4.31304312    0.78901899    1.24380600
 H          5.32276917    1.08608401   -0.16811401
 H          5.89021492   -0.03107700    1.10045099
