33
wb97x-d4 ma-def2-tzvp(-f) cpcm(dmso) E: -955.167965964919, G: -954.94622311
 C         -2.22374105   -1.04429400   -0.99443501
 C         -1.14410901   -1.66080701   -0.17541701
 O         -1.19863200   -3.01409793   -0.05455500
 C         -0.25652200   -0.91039002    0.76421100
 O          0.90649301   -1.67069495    1.05017900
 C          0.01338400    0.45974499    0.15795900
 C         -1.33284605    1.09446299   -0.18894200
 C         -1.17857397    2.49601698   -0.77266002
 O         -0.75181699    3.43505406    0.20654500
 O         -1.99681699    0.33503801   -1.20577502
 O          0.72245097    1.29841697    1.05324900
 O         -3.54086208   -1.30656803   -0.52585101
 H         -1.94845104    1.15738404    0.71598101
 H         -2.23839688   -1.49200201   -1.99275601
 H         -0.76178199   -0.74789798    1.73089802
 H          0.58268797    0.33614799   -0.77173603
 C         -3.80317402   -0.97731298    0.83564597
 H         -0.39760700   -3.27060604    0.43324101
 H         -0.47572899    2.45824289   -1.61535597
 H         -2.14782190    2.83014894   -1.14926195
 H          1.69689798    1.14590299    0.89050502
 H          1.65628505   -1.38218904    0.46117601
 H         -0.01783500    3.00097394    0.67443103
 H         -3.84722400    0.10511900    0.98442900
 H         -3.05218410   -1.40787196    1.50472403
 H         -4.77701712   -1.40477896    1.07596195
 O          3.27217793    0.97321498    0.51572400
 O          3.00646901   -1.03560698   -0.43684399
 C          5.11778784    0.04839700   -0.67265099
 C          3.68429089   -0.00639500   -0.16684900
 H          5.76773500   -0.38181001    0.09549200
 H          5.43164110    1.07862902   -0.84359401
 H          5.23284292   -0.53957099   -1.58366895
