33
wb97x-d4 ma-def2-tzvp(-f) cpcm(dmso) E: -955.171539672354, G: -954.95054063
 C         -2.21443105   -1.02859998    0.01475300
 C         -1.04342699   -1.71017897   -0.61530101
 O         -1.34987795   -2.42348599   -1.73967195
 C          0.24830200   -0.94212401   -0.65092498
 O          1.17030203   -1.62914896   -1.47107804
 C         -0.03207700    0.47314000   -1.18123400
 C         -1.17873502    1.09276605   -0.37346700
 C         -1.55661500    2.47275591   -0.87331802
 O         -2.59641695    3.05052209   -0.08684000
 O         -2.36339498    0.29362601   -0.49946901
 O          1.11784399    1.29341805   -1.15270996
 O         -2.02326989   -1.01932502    1.40619600
 H         -0.88960499    1.15836501    0.68302798
 H         -3.15155411   -1.53282297   -0.24558900
 H          0.63768297   -0.84462601    0.37010700
 H         -0.35785201    0.38620800   -2.22573590
 C         -3.12420297   -0.45383200    2.11443996
 H         -0.50318199   -2.62236691   -2.17370391
 H         -0.69527203    3.13597107   -0.80192500
 H         -1.86369503    2.40406394   -1.92487001
 H          1.73437405    0.99183398   -0.43836701
 H          2.07844496   -1.49038994   -1.08331394
 H         -3.32565689    2.41810107   -0.07534500
 H         -3.20125389    0.62180400    1.93418896
 H         -2.94246602   -0.63365501    3.17376208
 H         -4.06132317   -0.93821800    1.81635594
 O          2.94929790    0.59728402    0.68084699
 O          3.54571795   -1.27861905   -0.38777599
 C          5.06142521   -0.37489301    1.21217501
 C          3.74424410   -0.35292599    0.44933999
 H          5.38158178   -1.39962804    1.40506494
 H          4.98075008    0.17871299    2.14792490
 H          5.82434177    0.10626800    0.59245503
