33
wb97x-d4 ma-def2-tzvp(-f) cpcm(dmso) E: -955.169319650058, G: -954.9460076
 C         -2.36342311   -1.07038999   -0.32847399
 C         -1.14566600   -1.93208098   -0.26904100
 O         -0.78957498   -2.46760011   -1.47230697
 C         -0.00764200   -1.42806697    0.57753497
 O          1.10658503   -2.27319908    0.32878801
 C          0.25600499    0.04113400    0.20706999
 C         -1.05097699    0.83903402    0.23227800
 C         -0.85172600    2.27923393   -0.23095401
 O         -0.11903600    3.05480409    0.71008003
 O         -2.00456095    0.27054301   -0.66516602
 O          1.15133905    0.66678602    1.11640096
 O         -3.01049590   -1.13168204    0.91378200
 H         -1.44888997    0.84390801    1.25424302
 H         -3.03288388   -1.38441396   -1.13660502
 H         -0.29006901   -1.45505202    1.63779604
 H          0.66296798    0.07222000   -0.81366199
 C         -4.23013306   -0.39245799    0.94020498
 H          0.14097200   -2.73809290   -1.37098205
 H         -0.35262400    2.27550101   -1.20893300
 H         -1.83176899    2.74694800   -0.34794101
 H          2.05010605    0.27995500    0.95571703
 H          1.94981599   -1.76546299    0.40993401
 H          0.63256401    2.50207806    0.97953099
 H         -4.04304600    0.68147302    0.85715503
 H         -4.70773792   -0.60615599    1.89607000
 H         -4.88756609   -0.70876700    0.12220600
 O          3.28815794   -0.71263802    0.47279400
 O          4.32216978   -1.29626703   -1.41902494
 C          4.14113617    1.03692198   -0.89294499
 C          3.91293502   -0.44235599   -0.61399102
 H          3.17281795    1.53597796   -0.98995000
 H          4.71928501    1.18500996   -1.80452001
 H          4.66095877    1.49315798   -0.04708800
