33
wb97x-d4 ma-def2-tzvp(-f) cpcm(dmso) E: -955.168678559553, G: -954.94596885
 C         -2.50552011   -1.13720500   -0.13997801
 C         -1.26165605   -1.87852299   -0.50220299
 O         -1.27947700   -2.40515900   -1.76052999
 C          0.04018500   -1.25503600   -0.07561500
 O          1.07531798   -1.99697995   -0.70300198
 C          0.02705000    0.22853900   -0.48493499
 C         -1.27122998    0.89911699   -0.02359900
 C         -1.37977600    2.34150505   -0.50947702
 O         -0.44803599    3.20442700    0.13194400
 O         -2.40756989    0.22431099   -0.56209701
 O          1.10192001    0.95545501    0.09689800
 O         -2.69241810   -1.23457396    1.24592400
 H         -1.30851197    0.88763702    1.07256496
 H         -3.37306404   -1.52893102   -0.68196702
 H          0.13230801   -1.29485703    1.01751995
 H          0.07507000    0.28166500   -1.58186901
 C         -3.90061808   -0.62072802    1.69102097
 H         -0.34845099   -2.58703399   -1.98152900
 H         -1.24730396    2.36326194   -1.59932101
 H         -2.38112593    2.71140504   -0.27827901
 H          1.94863200    0.61626297   -0.29160401
 H          1.89426601   -1.45053101   -0.79267699
 H          0.39775699    2.72718811    0.13383800
 H         -4.01242590   -0.87483299    2.74471211
 H         -4.75721216   -1.00809205    1.12759697
 H         -3.85720801    0.46601000    1.58019197
 O          4.84094906   -1.59521699   -0.15708899
 O          3.16239190   -0.32974800   -0.90894598
 C          4.78536081    0.71664101    0.47918901
 C          4.24158907   -0.50957000   -0.24091800
 H          4.96007299    1.51705897   -0.24387801
 H          5.71104288    0.48945600    1.00705695
 H          4.03768778    1.07707596    1.19105506
