33
wb97x-d4 ma-def2-tzvp(-f) cpcm(dmso) E: -955.169318359504, G: -954.94587895
 C         -2.35115409   -1.08567297   -0.33832601
 C         -1.13188195   -1.94217801   -0.24661399
 O         -0.75811797   -2.49971604   -1.43442202
 C         -0.00701200   -1.41899502    0.60565400
 O          1.11276901   -2.26555610    0.38828599
 C          0.25784799    0.04387800    0.21167000
 C         -1.05220103    0.83732402    0.20656000
 C         -0.85307503    2.27076292   -0.27667499
 O         -0.13842300    3.06468797    0.66279000
 O         -1.99155402    0.25024301   -0.69400698
 O          1.14052296    0.68881100    1.11997604
 O         -3.01515293   -1.12676895    0.89589900
 H         -1.46393001    0.85683900    1.22281802
 H         -3.00846791   -1.41622400   -1.14979899
 H         -0.30391100   -1.42734396    1.66223502
 H          0.67707598    0.05780700   -0.80439800
 C         -4.23667288   -0.39006799    0.89307499
 H          0.17177100   -2.76535296   -1.31544304
 H         -0.33978599    2.25436401   -1.24717295
 H         -1.83365798    2.73143792   -0.41504699
 H          2.04166698    0.29942399    0.98026597
 H          1.95276201   -1.75313103    0.46948501
 H          0.61192203    2.52033710    0.95213598
 H         -4.72688293   -0.58884698    1.84573996
 H         -4.88195801   -0.72174698    0.07152000
 H         -4.05090809    0.68276602    0.79454702
 O          4.35868692   -1.29664099   -1.34795904
 O          3.28863311   -0.69730300    0.51836902
 C          4.12448978    1.04240704   -0.87076098
 C          3.92172790   -0.43537599   -0.56548703
 H          4.62738085    1.52431297   -0.02886200
 H          3.14828491    1.52151203   -0.98689699
 H          4.70919895    1.18400395   -1.77915704
