33
wb97x-d4 ma-def2-tzvp(-f) cpcm(dmso) E: -955.168699965176, G: -954.9457576
 C         -2.40680790   -1.20519304   -0.19173799
 C         -1.08156800   -1.87851906   -0.03848100
 O         -0.66675800   -2.53822207   -1.15845096
 C         -0.02118300   -1.09672201    0.68675202
 O          1.19916606   -1.81264603    0.55269498
 C          0.04532500    0.30596900    0.06424100
 C         -1.35391295    0.92565298    0.01783900
 C         -1.35867405    2.28840899   -0.66818398
 O         -0.72383100    3.29211998    0.11509200
 O         -2.23699808    0.10129600   -0.74416798
 O          0.87993097    1.17925704    0.80957299
 O         -3.02656388   -1.15659797    1.06463099
 H         -1.73242903    1.03986502    1.04090202
 H         -3.03540611   -1.72944999   -0.91962099
 H         -0.29525200   -0.98263401    1.74329805
 H          0.41696301    0.20725800   -0.96461397
 C         -4.34084606   -0.60422200    1.01490903
 H          0.29296699   -2.66320992   -1.05363297
 H         -0.87982202    2.19750404   -1.65205598
 H         -2.39488912    2.59939408   -0.81840998
 H          1.80834794    0.83358097    0.74987900
 H          1.95707798   -1.18851602    0.59089500
 H          0.10794300    2.90036702    0.42627800
 H         -4.31352377    0.46088001    0.76982802
 H         -4.77693415   -0.73929203    2.00437188
 H         -4.94922686   -1.13074803    0.27057999
 O          3.25715709    0.00775700    0.57490897
 O          3.28076005    0.57440901   -1.58953905
 C          5.34943199   -0.04832400   -0.55116802
 C          3.84766412    0.20203400   -0.54662102
 H          5.78023577    0.13760500   -1.53473902
 H          5.54556322   -1.08106804   -0.25205001
 H          5.82609797    0.60200602    0.18679900
