33
wb97x-d4 ma-def2-tzvp(-f) cpcm(dmso) E: -955.168800713251, G: -954.94552004
 C         -2.28171706   -1.12706006   -0.25541201
 C         -1.01338696   -1.90836596   -0.14353099
 O         -0.62517202   -2.49347591   -1.31367803
 C          0.08543100   -1.27735603    0.66643000
 O          1.24896097   -2.07333899    0.48635799
 C          0.27108499    0.16613100    0.17271300
 C         -1.07920599    0.89053202    0.15770200
 C         -0.97109699    2.30623603   -0.39964399
 O         -0.29978400    3.18817401    0.49220100
 O         -2.00392699    0.20628500   -0.68797201
 O          1.14703596    0.91286200    1.00334203
 O         -2.92133999   -1.14085698    0.99138701
 H         -1.47030997    0.94144398    1.18093801
 H         -2.93206596   -1.53669298   -1.03586805
 H         -0.20374800   -1.23769403    1.72423303
 H          0.65510100    0.12845699   -0.85612798
 C         -4.19339895   -0.49543801    0.97029102
 H          0.31815901   -2.70730710   -1.20718396
 H         -0.46686199    2.27377796   -1.37441301
 H         -1.97933102    2.69920802   -0.54780000
 H          2.04517698    0.48897600    0.97846001
 H          2.05108690   -1.53362501    0.65352601
 H          0.49374399    2.71413398    0.78815901
 H         -4.08830118    0.58014798    0.80521601
 H         -4.65212393   -0.67172998    1.94282103
 H         -4.82568979   -0.92216200    0.18322700
 O          3.42021894   -0.44581801    0.84088397
 O          5.36562300   -0.79713899   -0.19291300
 C          3.76678991    0.62375301   -1.26656199
 C          4.23902512   -0.27483201   -0.13067199
 H          4.56080008    0.78866398   -1.99402499
 H          3.42453289    1.58152795   -0.86792701
 H          2.91469193    0.15257899   -1.76416004
