34
wb97x-d4 ma-def2-tzvp cpcm(acetone) E: -955.850822958341, G: -955.61465705, DLPNO-CCSD(T1) aug-cc-pvtz cpcm(acetone) E: -953.836917026369
 C         -0.95930201   -3.02561903    2.07589602
 C         -0.58967900   -1.80520594    1.25376797
 H         -1.16509104   -3.86069798    1.39569104
 O         -2.07695007   -2.79103804    2.92649508
 H         -0.12106300   -3.29826593    2.71807694
 O         -1.75342596   -1.48278201    0.48459399
 C         -0.18240200   -0.59903800    2.10318589
 H          0.23886600   -2.07277989    0.58763200
 C          0.07744600    0.61303699    1.20874500
 O          0.97565103   -0.89236802    2.87074089
 H         -0.99142802   -0.36906999    2.80090094
 C         -1.57840204   -0.42411301   -0.43797901
 H         -2.80247593   -2.48608303    2.36882210
 O          1.28637505    0.36366299    0.52120203
 O         -0.67636901   -0.75106698   -1.45188797
 H          1.72519195   -0.70282298    2.28713894
 H          1.67132998    1.21807301    0.18727601
 C         -1.15760601   -1.76517200   -2.32430506
 C         -1.12784505    0.84473699    0.29341301
 H         -2.57517004   -0.26594299   -0.86920899
 H         -1.96512306    1.10229897    0.95213401
 O         -0.96018898    1.93483400   -0.57975799
 H         -0.14563800    1.83984303   -1.12813902
 H          0.18919900    1.50315702    1.84280205
 H         -0.43152601   -1.86250496   -3.13144302
 H         -2.13239408   -1.48543203   -2.74197602
 H         -1.25353801   -2.72351503   -1.80476499
 O          2.43634200    2.55683494   -0.41156799
 O          1.17363405    2.23528790   -2.22528195
 C          3.02708602    3.73070312   -2.40056396
 C          2.14788699    2.75907803   -1.62558305
 H          2.66082001    4.74546289   -2.21661592
 H          2.97460198    3.53727007   -3.47236300
 H          4.06118822    3.67923594   -2.05707693
