62
wb97x-d4 ma-def2-tzvp(-f) cpcm(acetonitrile) E: -1936.754933933289, G: -1936.2942741000002
 C         -2.17716193   -0.84719199    1.86259305
 C         -1.30953205   -1.92506802    1.21544802
 O         -0.37609500   -2.39781690    2.14931703
 C         -0.66839403   -1.38533902   -0.06694600
 O          0.04614100   -2.29703593   -0.80275297
 C         -1.68739903   -0.71199799   -0.97783101
 C         -2.54712892    0.28177401   -0.20560400
 C         -3.70680094    0.79580700   -1.03588498
 O         -4.46113396    1.77656102   -0.33132699
 O         -3.12726307   -0.36437899    0.93069297
 O         -1.04727197   -0.01690500   -2.03795505
 O         -1.34781897    0.16770799    2.34658909
 H         -1.93449700    1.12731504    0.12192300
 H         -2.76934910   -1.27855098    2.67697406
 H          0.10373600   -0.53136301    0.27861300
 H         -2.33687401   -1.50399399   -1.37735701
 C         -2.04003000    1.13518405    3.13377905
 H         -0.05035600   -3.29007006    1.86601603
 H         -3.32525992    1.27405798   -1.93805003
 H         -4.34320593   -0.04912900   -1.32681799
 H         -0.48368701   -0.65075397   -2.49938107
 H          0.76152599   -2.77439809   -0.27071300
 H         -4.76722622    1.36940205    0.48844200
 H         -2.74441290    1.70941496    2.52544689
 H         -1.28449202    1.80479503    3.54418993
 H         -2.58066297    0.64669001    3.95163012
 H         -1.99356902   -2.72688603    0.90346199
 C          3.58238697    0.75118202   -0.39897901
 C          2.23294806    0.02514200   -0.65759200
 C          3.38292003    1.75917995    0.73728901
 C          3.09123898    0.99080998    2.03018188
 C          1.93337703   -0.00816400    1.75943995
 N          1.34242594    0.35302800    0.46202001
 H          3.89821601    1.25416005   -1.31460202
 H          1.75293398    0.36759499   -1.57311904
 H          4.27636909    2.37461495    0.85590601
 H          3.97228789    0.43772799    2.36051607
 H          1.15016401    0.04606900    2.51154804
 H          4.35111189    0.02477700   -0.12736000
 H          2.35407805   -1.05627501   -0.69522899
 C          2.17328405    2.64001203    0.40834501
 H          2.80812097    1.68473804    2.82458210
 H          2.28493190   -1.03606701    1.68114400
 C          0.89775997    1.75323701    0.42025501
 H          2.29807091    3.10145402   -0.57356298
 H          2.06312704    3.43696809    1.14582098
 H          0.29826200    1.89140797   -0.47823700
 H          0.28086600    1.92804301    1.29935598
 O          2.03340101   -3.57236004    0.23635800
 O          0.65986800   -4.76767015    1.53090203
 C          2.82774210   -5.63739109    1.10202897
 C          1.75605798   -4.58005524    0.94473702
 C          4.07842112   -5.47207212    0.51316500
 C          2.57069397   -6.78923607    1.84088695
 C          3.54253292   -7.76819277    1.99085104
 C          4.77929592   -7.57643318    1.39504600
 C          5.06423521   -6.43845892    0.65696102
 H          1.59860098   -6.91803122    2.30034590
 H          4.28046799   -4.57700586   -0.06190700
 H          6.03918791   -6.31159782    0.20218900
Cl          6.01026201   -8.80143070    1.57807600
 H          3.34463406   -8.66674805    2.56264210
