11
wb97x-d4 ma-def2-tzvp cpcm(acetone) E: -193.866560639751, G: -193.79725455000002, DLPNO-CCSD(T1) aug-cc-pvtz cpcm(acetone) E: -193.404262540179
 C         -1.32016504   -0.68517703   -0.00752300
 C          0.00852300   -0.07221700   -0.28908399
 H          1.24805403   -1.80721498   -0.15708700
 H          2.14734411   -0.28996101   -0.33298999
 H          1.40610600   -0.70536900    1.22217298
 H         -2.11551499   -0.16944300   -0.55231500
 H         -1.32393205   -1.73815405   -0.29695100
 H         -1.56549895   -0.63329202    1.06601405
 C          1.26965106   -0.75368202    0.12921301
 O         -0.01257800    1.30572903   -0.18302700
 H          0.88544101    1.64730096   -0.27197400
