26
wb97x-d4 ma-def2-tzvp cpcm(acetone) E: -788.679848580784, G: -788.47485727, DLPNO-CCSD(T1) aug-cc-pvtz cpcm(acetone) E: -787.139349875943
 C          3.74445009   -1.45035303   -0.57796401
 H          5.77811480   -1.15630198    0.11299600
 H          4.71040821   -1.89421296    1.31165802
 C          2.33331895   -1.43859398    0.02414500
 H          1.59133804   -1.68210804   -0.74318701
 H          2.25154901   -2.18863297    0.81676197
 C          2.13915396    1.01179194   -0.50018901
 S          0.41617000   -0.01019700    1.39309704
 C          4.57246590    1.30604303    0.00154300
 H          5.18839693    0.47707701    1.90370500
 C          3.55197811    0.99214900   -1.09811795
 H          4.38573599    2.30372190    0.41425201
 H          5.58500481    1.30737400   -0.41639900
 H          3.61405492    1.74845898   -1.88701499
 C          3.83963203   -0.39461800   -1.68538296
 H          1.39705706    0.80543101   -1.27831304
 H          2.98187089   -0.46709400    2.51677990
 H          1.91668200    1.99735904   -0.07976700
 H          3.12130404   -0.62074101   -2.48135996
 H          3.94449091   -2.44291091   -0.99399602
 H          4.84019518   -0.41080001   -2.13121510
 H          2.84635997    1.25794899    2.13970494
 C          4.76281881   -1.13468802    0.52359998
 C          2.03190708   -0.04926500    0.60446602
 C          3.05866909    0.27242500    1.71346605
 C          4.47031307    0.25146601    1.10887396
