55
energy: -1282.384604657826
 C         -2.52660489    1.33150601    0.73999703
 C         -1.71312404    0.50226599    1.72552001
 O         -1.13704503    1.35125101    2.70397711
 C         -0.67770898   -0.36240101    1.01120996
 O          0.01904600   -1.08713102    1.93405700
 C         -1.26386297   -1.15265298   -0.16791400
 C         -2.14777708   -0.24651600   -1.02847397
 C         -2.95815706   -1.03225100   -2.03958797
 O         -3.69071794   -0.17535400   -2.91600108
 O         -3.10338712    0.46430501   -0.22238401
 O         -0.25071999   -1.70369196   -0.97716600
 O         -1.70342398    2.30589008    0.16773900
 H         -1.51859200    0.47142801   -1.55899000
 H         -3.37728691    1.79885995    1.24501801
 H          0.13066000    0.39468101    0.48841301
 H         -1.88893402   -1.94729805    0.26359600
 C         -2.40532303    3.26509809   -0.62659597
 H         -0.66339898    0.79067898    3.33378792
 H         -2.28719807   -1.61986101   -2.66259098
 H         -3.63419700   -1.71340501   -1.51053405
 H         -0.05656600   -2.63361597   -0.65844500
 H          0.54105502   -1.89367998    1.57134998
 H         -4.26164007    0.38177800   -2.36943698
 H         -1.67653704    4.01782894   -0.91970301
 H         -3.20377707    3.73379803   -0.04370000
 H         -2.83126593    2.80295897   -1.51932001
 H         -2.42178512   -0.18925600    2.19950509
 C          3.78410196    0.91603398   -0.20486701
 C          2.46194100    0.18250200    0.16814300
 C          3.43190908    2.26598406   -0.84296101
 C          2.72227311    3.13713694    0.20045801
 C          1.50812304    2.34486294    0.76657099
 N          1.34613502    1.12024498   -0.03803200
 H          4.35352421    0.29841599   -0.89986002
 H          2.28308606   -0.68312502   -0.46393201
 H          4.33791780    2.76187611   -1.19304502
 H          3.40035295    3.39378500    1.01499999
 H          0.58131599    2.90639710    0.70659500
 H          4.39389896    1.06697595    0.68671501
 H          2.45145297   -0.13185801    1.20967102
 C          2.47506404    2.02659702   -2.01767492
 H          2.37919807    4.06676483   -0.25549099
 H          1.66855800    2.03856301    1.79774702
 C          1.14921498    1.42219698   -1.46711302
 H          2.92502308    1.34147096   -2.73728704
 H          2.26015592    2.96255994   -2.53404307
 H          0.88497198    0.49577999   -1.96984398
 H          0.31971300    2.11983299   -1.54361296
 O          0.27332199   -4.13271189   -0.16224100
 O          1.43850994   -3.14130998    1.47025299
 C          1.83446097   -5.45720291    1.06259298
 C          1.13375294   -4.14464903    0.76049399
 H          1.22257996   -6.01864481    1.77418399
 H          2.80968499   -5.28656006    1.51601303
 H          1.93691599   -6.05941486    0.16064800
