55
energy: -1282.379955777001
 C         -2.21576190    0.33303899    1.05954397
 C         -1.26797700   -0.85420102    0.89427298
 O         -0.47172701   -0.96034300    2.05334401
 C         -0.46964899   -0.72231603   -0.41089699
 O          0.32807401   -1.78402603   -0.73801398
 C         -1.34635699   -0.36167401   -1.60972095
 C         -2.31698298    0.77099901   -1.29574502
 C         -3.36409307    0.97892803   -2.37476802
 O         -4.15905380   -0.18208800   -2.61328912
 O         -3.03616691    0.47239101   -0.08963200
 O         -0.55985701    0.03385900   -2.72870207
 O         -1.46109903    1.48325300    1.31145203
 H         -1.76401901    1.70699501   -1.17938995
 H         -2.91220593    0.14363299    1.88172305
 H          0.28477600    0.23231700   -0.24790201
 H         -1.92739999   -1.25825000   -1.85489595
 C         -2.24246097    2.61640596    1.69619405
 H          0.07321300   -1.77851796    1.98729897
 H         -3.99469805    1.82533395   -2.08568597
 H         -2.87018204    1.22010601   -3.31457305
 H         -0.00442100   -0.71569598   -2.98187399
 H          0.66544503   -2.30606604    0.08117200
 H         -4.61378384   -0.40271300   -1.78915405
 H         -1.53946900    3.40380907    1.95999098
 H         -2.86547899    2.37491298    2.56252408
 H         -2.87857699    2.95605302    0.87617803
 H         -1.90443504   -1.74277198    0.77920097
 C          3.79041004    1.42969203   -0.82802099
 C          2.50269198    0.56473202   -0.97063601
 C          3.44113111    2.70552111   -0.05113000
 C          2.99418592    2.31756210    1.36313796
 C          1.82422698    1.29713297    1.25404894
 N          1.44037294    1.18920696   -0.16609600
 H          4.17196894    1.67514598   -1.81949604
 H          2.15478110    0.51979500   -1.99973905
 H          4.30989504    3.36308694   -0.00399200
 H          3.81870103    1.86653602    1.91612697
 H          0.94661701    1.61015403    1.81014597
 H          4.56153679    0.86645103   -0.30136001
 H          2.65191293   -0.44926101   -0.60594100
 C          2.28027606    3.41791105   -0.75634700
 H          2.66635394    3.20212603    1.91072202
 H          2.11605906    0.30527201    1.58994305
 C          1.02971399    2.48951292   -0.72505403
 H          2.54732203    3.64640188   -1.78892696
 H          2.04730892    4.35720301   -0.25412199
 H          0.62993699    2.31396699   -1.72063804
 H          0.24278700    2.88553405   -0.08939700
 O          1.06857002   -3.02596807    1.35103500
 O          0.86847502   -4.85495806    2.61193991
 C          0.50741899   -5.07033682    0.25172001
 C          0.83564001   -4.28423595    1.51136196
 H          1.29009104   -4.92332888   -0.49499500
 H         -0.42430899   -4.69430923   -0.17720699
 H          0.40131301   -6.13139486    0.46739101
