55
energy: -1282.37313460302
 C         -2.49398398    0.38316500    0.91067100
 C         -1.03014898    0.82129103    0.97342002
 O         -0.91965902    2.23434901    0.75956798
 C         -0.23600499    0.10247300   -0.12913001
 O          0.09271600   -1.15016401    0.11135800
 C         -0.88019598    0.31501800   -1.51161098
 C         -2.35380292   -0.12023700   -1.45390201
 C         -2.61052489   -1.63211799   -1.34247601
 O         -1.78762400   -2.40297198   -2.21316791
 O         -3.04443908    0.56742799   -0.39271900
 O         -0.78283203    1.66431999   -1.96991897
 O         -3.21390891    1.18609798    1.79241502
 H         -2.82364392    0.25393999   -2.36527205
 H         -2.56793308   -0.66785699    1.21095097
 H          0.82366800    0.76312202   -0.18853800
 H         -0.35905001   -0.30805001   -2.23515010
 C         -4.55206013    0.73836499    2.04052401
 H         -1.62305498    2.66383195    1.26845098
 H         -2.46936011   -1.96571195   -0.31668800
 H         -3.65837002   -1.80525994   -1.60230803
 H         -0.98955703    2.23597908   -1.21178496
 H         -0.31954899   -2.22088003    1.09195006
 H         -1.19419706   -2.92061400   -1.64191306
 H         -4.95338678    1.37836897    2.82317400
 H         -4.54638195   -0.30070999    2.38199091
 H         -5.16702223    0.82539201    1.14377904
 H         -0.62612098    0.55006701    1.95297503
 C          4.43565178    0.87836599   -1.11777306
 C          2.98349094    0.35360801   -0.96452802
 C          4.58757687    2.13470197   -0.24808200
 C          4.14046383    1.79723203    1.18182504
 C          2.62026596    1.48924398    1.15433598
 N          2.17693806    1.36161304   -0.24855900
 H          4.64049292    1.12182403   -2.16187811
 H          2.51430702    0.17116401   -1.93036103
 H          5.62515211    2.47008109   -0.24906901
 H          4.69759083    0.93509698    1.55275905
 H          2.04022098    2.29279709    1.60535598
 H          5.14503908    0.10866500   -0.81119001
 H          2.94410706   -0.56753999   -0.38481101
 C          3.67289400    3.23594689   -0.80515301
 H          4.33625412    2.63328791    1.85456204
 H          2.38164806    0.55996799    1.67080903
 C          2.23443794    2.66529799   -0.93656301
 H          4.02787304    3.57506704   -1.77936602
 H          3.67802596    4.09623814   -0.13316800
 H          1.95545995    2.49925208   -1.97486103
 H          1.49344897    3.32056499   -0.48361501
 O         -0.53754401   -3.01170802    1.70925403
 O         -0.74632102   -4.16947603   -0.20440200
 C         -0.99878198   -5.32291412    1.88539302
 C         -0.75660503   -4.11892700    1.01922095
 H         -1.47135401   -6.11334896    1.30775201
 H         -1.61178100   -5.06225204    2.74720407
 H         -0.03553400   -5.67994213    2.25990510
