55
energy: -1282.380848435993
 C         -2.50776792    1.31102800    0.87730402
 C         -1.60333300    0.47413301    1.77729106
 O         -1.00680602    1.26672101    2.79012609
 C         -0.58459198   -0.32779101    0.95980501
 O          0.16360500   -1.11867201    1.78320599
 C         -1.22771597   -1.03728604   -0.24357399
 C         -2.15166712   -0.09621400   -1.01834095
 C         -2.97166395   -0.83398098   -2.07155704
 O         -2.16746712   -1.28064799   -3.16068792
 O         -3.09489989    0.51895899   -0.13458300
 O         -0.26847699   -1.54285300   -1.16202998
 O         -1.71818197    2.35527301    0.37069100
 H         -1.55514598    0.67146802   -1.51626301
 H         -3.34915590    1.71167600    1.44940102
 H          0.20759100    0.47902101    0.44593501
 H         -1.83435500   -1.85861695    0.16398200
 C         -2.45745897    3.39595389   -0.27674401
 H         -0.75749099    2.11349392    2.39244390
 H         -3.49669099   -1.67377806   -1.60103297
 H         -3.71664190   -0.14918301   -2.47780800
 H          0.21709700   -2.29125810   -0.72238302
 H          0.53557003   -1.94151902    1.30836904
 H         -1.36863899   -1.67435801   -2.76876497
 H         -3.21178007    3.80439401    0.40120199
 H         -2.94135189    3.02419710   -1.18161702
 H         -1.73976600    4.17017508   -0.53846699
 H         -2.23318696   -0.25825399    2.28881693
 C          3.80309510    0.99612403   -0.42753500
 C          2.49613905    0.26115301   -0.01124500
 C          3.43918705    2.40077996   -0.92531198
 C          2.81790304    3.18869805    0.23349200
 C          1.60036302    2.38849807    0.78107601
 N          1.37909698    1.22012305   -0.09233500
 H          4.30285501    0.42699400   -1.21172595
 H          2.26503396   -0.56596899   -0.67727703
 H          4.33217001    2.91076398   -1.28819501
 H          3.54620099    3.33546495    1.03135204
 H          0.69127500    2.98371005    0.77340502
 H          4.48135710    1.06260395    0.42364600
 H          2.54559588   -0.11101400    1.01002800
 C          2.40644693    2.28359699   -2.05304098
 H          2.49080396    4.17100382   -0.10877200
 H          1.77978599    2.01705289    1.78792703
 C          1.11395001    1.62501800   -1.48597097
 H          2.80336499    1.67692494   -2.86789298
 H          2.16647696    3.26862311   -2.45386505
 H          0.83367097    0.73498201   -2.04253793
 H          0.27652901    2.31788802   -1.47303605
 O          0.36772400   -5.25179386   -0.04121200
 O          0.97111303   -3.16388392    0.46902099
 C          0.57058102   -4.66590118    2.27559710
 C          0.63082498   -4.36703491    0.78655499
 H          0.31915301   -5.70854807    2.45843196
 H         -0.17858200   -4.02489901    2.74614906
 H          1.53176606   -4.43356085    2.73840308
