55
energy: -1282.374544628846
 C         -2.55258298    0.09020900    0.81378597
 C         -1.06609499    0.44309399    0.89954901
 O         -0.89644402    1.84995699    1.09860802
 C         -0.40547499    0.03041800   -0.42233199
 O         -0.19990300   -1.26957297   -0.55263001
 C         -1.09748006    0.69800001   -1.62646699
 C         -2.60473394    0.39664000   -1.59037697
 C         -2.97070003   -1.02832603   -2.01431704
 O         -2.61807203   -1.27844703   -3.37640595
 O         -3.16799402    0.71960598   -0.30872700
 O         -0.86546302    2.10768890   -1.66558599
 O         -3.16717505    0.58061099    1.96246505
 H         -3.09086800    1.08979905   -2.28163409
 H         -2.66866708   -0.99839199    0.74982202
 H          0.72785902    0.58701903   -0.40779099
 H         -0.68175298    0.28187200   -2.54312396
 C         -4.51832104    0.13904700    2.14402890
 H         -1.55488896    2.13543010    1.74912703
 H         -2.43256998   -1.76809597   -1.42634594
 H         -4.04408216   -1.16828799   -1.85526001
 H         -0.98477799    2.43569994   -0.75795501
 H          0.24280800   -2.05587506    0.65637797
 H         -3.18212509   -0.73648000   -3.94390702
 H         -4.56525087   -0.95341599    2.12147403
 H         -5.17153788    0.54932499    1.37289798
 H         -4.83336592    0.49865800    3.12100792
 H         -0.62187201   -0.11501900    1.72759902
 C          4.11562777    1.45459199   -1.69295001
 C          2.59055901    1.17029500   -1.69551694
 C          4.55953789    1.70207703   -0.24452800
 C          4.31264782    0.42276800    0.56590199
 C          2.80881810    0.05779100    0.46057400
 N          2.09964204    1.10540998   -0.30237901
 H          4.33455801    2.32466197   -2.31358790
 H          2.03102803    1.95677996   -2.19827700
 H          5.61778402    1.96402800   -0.21631999
 H          4.92350817   -0.39363000    0.17809500
 H          2.33929491   -0.00905800    1.44052899
 H          4.65961981    0.60534000   -2.10964990
 H          2.35265589    0.22051100   -2.17316890
 C          3.71970391    2.84469295    0.34622100
 H          4.59135723    0.57656801    1.60967600
 H          2.65414405   -0.88696003   -0.05809600
 C          2.22695804    2.41351509    0.36807001
 H          3.84162211    3.74424791   -0.25951701
 H          4.05554008    3.07856393    1.35736799
 H          1.59000599    3.12470698   -0.15334700
 H          1.85084105    2.29722810    1.38166106
 O          0.61966097   -2.56208611    1.47515404
 O          0.27432200   -4.33470106    2.74582911
 C         -1.15537703   -4.08320284    0.84083402
 C         -0.04165800   -3.67007494    1.77119601
 H         -1.91818202   -4.62271214    1.39831102
 H         -0.73377699   -4.75884008    0.09135900
 H         -1.59316194   -3.23529696    0.31925201
