55
energy: -1282.379734373914
 C         -2.45840192    1.19512403    0.83489102
 C         -1.56962895    0.34658599    1.73242903
 O         -0.98817497    1.15589094    2.74015307
 C         -0.53077698   -0.41999799    0.91886199
 O          0.23799600   -1.17709100    1.75775802
 C         -1.13155401   -1.15556300   -0.29127201
 C         -2.11043906   -0.24966900   -1.04513896
 C         -2.91520810   -1.02930903   -2.06945896
 O         -3.70573592   -0.18638600   -2.90935707
 O         -3.04695702    0.35890600   -0.14642100
 O         -0.13882899   -1.57273901   -1.21324396
 O         -1.69900703    2.23098612    0.28112000
 H         -1.53964996    0.52806801   -1.56027198
 H         -3.30081797    1.60034096    1.40349400
 H          0.22427900    0.41271400    0.42129201
 H         -1.68116605   -2.02241206    0.10301700
 C         -2.47564411    3.20165801   -0.42539200
 H         -0.47583699    0.57711202    3.32135701
 H         -2.23307991   -1.64076900   -2.66300297
 H         -3.61419797   -1.68878102   -1.55256104
 H          0.40609300   -2.26772809   -0.77910799
 H          0.66058099   -1.99189305    1.28530097
 H         -3.11120391    0.31041500   -3.48679900
 H         -3.25446606    3.61311603    0.22342600
 H         -2.93671608    2.76675606   -1.31433296
 H         -1.79030299    3.99309397   -0.72139400
 H         -2.22521901   -0.40667400    2.18744302
 C          3.82636404    1.10391200   -0.34391099
 C          2.53861499    0.29965499   -0.00115900
 C          3.41415405    2.49096990   -0.85364002
 C          2.71821189    3.24573994    0.28502601
 C          1.54287302    2.37290406    0.81415999
 N          1.38861501    1.21583903   -0.08660500
 H          4.39412785    0.56572998   -1.10333395
 H          2.36597896   -0.50832897   -0.70706099
 H          4.29317522    3.04298496   -1.18817794
 H          3.41685510    3.44499803    1.09806395
 H          0.60075498    2.91164899    0.82455099
 H          4.45617008    1.19956994    0.54124397
 H          2.57016802   -0.11116100    1.00595200
 C          2.42386389    2.32465005   -2.01345301
 H          2.33825493    4.20322418   -0.07353900
 H          1.74037898    1.98630702    1.81134701
 C          1.13449097    1.63367796   -1.47690403
 H          2.86747289    1.71985698   -2.80544710
 H          2.16445398    3.29510403   -2.43719411
 H          0.87955201    0.74611700   -2.04960394
 H          0.28383601    2.30959702   -1.46703506
 O          1.17153203   -5.33157492    0.07666000
 O          1.21924102   -3.14047599    0.49124500
 C          0.23040900   -4.55682707    2.14116907
 C          0.92398798   -4.35686493    0.80248398
 H          0.10564300   -5.61415815    2.36499810
 H         -0.75078100   -4.07683516    2.11415911
 H          0.80337900   -4.07708502    2.93676496
