55
energy: -1282.378887336824
 C         -2.19136596    0.25670201    1.22254097
 C         -1.23970997   -0.92221302    1.01570296
 O         -0.37442899   -1.00606096    2.12610698
 C         -0.51672298   -0.80241400   -0.33517200
 O          0.26299900   -1.86422098   -0.69855899
 C         -1.47228503   -0.45890400   -1.47566104
 C         -2.41678500    0.68388498   -1.11633694
 C         -3.51062489    0.88784802   -2.15777397
 O         -3.00175905    1.45223606   -3.36505699
 O         -3.07649302    0.37578499    0.11673700
 O         -0.76503998   -0.09354500   -2.66254497
 O         -1.43909800    1.41712606    1.42565298
 H         -1.85319400    1.61459100   -1.01707494
 H         -2.84085989    0.06442800    2.08146310
 H          0.23820500    0.15472201   -0.22578600
 H         -2.07550311   -1.35599899   -1.66475999
 C         -2.21220398    2.54517007    1.84191799
 H          0.15076099   -1.83551300    2.04799509
 H         -4.01480484   -0.06584100   -2.35264993
 H         -4.24450397    1.58963001   -1.76120102
 H         -0.27815399   -0.86720097   -2.97791195
 H          0.63378000   -2.39495802    0.10527900
 H         -2.21901703    0.93453097   -3.61325788
 H         -2.79042411    2.30260205    2.73854494
 H         -2.89004397    2.87418199    1.05168104
 H         -1.50466096    3.34027410    2.06744289
 H         -1.87091506   -1.81914997    0.94952703
 C          3.67943096    1.39146900   -1.06253004
 C          2.40279889    0.49802500   -1.08614504
 C          3.36810589    2.67260790   -0.27858800
 C          3.03063893    2.29869294    1.16952097
 C          1.85669506    1.27569795    1.16071105
 N          1.38730800    1.13058698   -0.22946000
 H          3.97387004    1.62837696   -2.08523202
 H          1.98480594    0.41158399   -2.08620596
 H          4.22886610    3.34191799   -0.30240300
 H          3.89601398    1.85546005    1.66298699
 H          1.01452899    1.60700405    1.75987804
 H          4.50234890    0.85185099   -0.59255898
 H          2.59601593   -0.49969900   -0.69826400
 C          2.15101290    3.36050701   -0.90905100
 H          2.74205303    3.18809009    1.73095798
 H          2.16779995    0.29306901    1.50622499
 C          0.92152703    2.41159606   -0.78806198
 H          2.34435296    3.58402610   -1.95885801
 H          1.93636501    4.30023718   -0.39952800
 H          0.46909100    2.21045709   -1.75580597
 H          0.16499500    2.80627108   -0.11557600
 O          1.07707405   -3.11309195    1.35917902
 O          0.46890399   -5.06804895    0.46053800
 C          0.83226800   -4.96417904    2.83073306
 C          0.77775198   -4.36525822    1.43560004
 H          0.54653502   -6.01411009    2.82248306
 H          0.16675299   -4.40865517    3.49484706
 H          1.84389997   -4.86596584    3.23044991
