55
energy: -1282.384952499881
 C         -2.35338807    0.11827300    1.01400304
 C         -1.45759106   -1.08460999    0.71504402
 O         -0.64461303   -1.35531104    1.82496095
 C         -0.67304200   -0.86160600   -0.58891702
 O          0.06069200   -1.92096198   -1.03465998
 C         -1.54531395   -0.34525600   -1.73026705
 C         -2.43551397    0.80639100   -1.28061604
 C         -3.47099400    1.18355501   -2.32150888
 O         -4.25664282    2.29956603   -1.90407896
 O         -3.16940689    0.41242099   -0.11132400
 O         -0.75354302    0.10087000   -2.82666397
 O         -1.55475903    1.20299399    1.38885903
 H         -1.82370698    1.68185306   -1.05201805
 H         -3.05766010   -0.13285600    1.81279194
 H          0.13940200    0.03153400   -0.33126101
 H         -2.18805408   -1.17922795   -2.04445791
 C         -2.29166293    2.31730390    1.89708698
 H         -0.34244299   -2.30656791    1.80310297
 H         -2.97182488    1.47714305   -3.24320602
 H         -4.10862303    0.31659600   -2.52836108
 H         -0.18030401   -0.63187897   -3.09116411
 H          0.68166101   -2.35774398   -0.33280900
 H         -4.66426516    2.06757212   -1.05829096
 H         -2.91380811    2.76785111    1.12118399
 H         -1.55867302    3.04380703    2.24147892
 H         -2.92371988    2.00773001    2.73487997
 H         -2.13551807   -1.92597699    0.51431602
 C          3.69788504    1.10595298   -0.79778200
 C          2.38203812    0.29633799   -0.99733597
 C          3.38915801    2.34525609    0.05060900
 C          2.91174197    1.89323795    1.43574405
 C          1.70565999    0.92580599    1.25864697
 N          1.33283603    0.91514498   -0.16949800
 H          4.09530210    1.39621198   -1.77075696
 H          2.04513502    0.31795901   -2.03112507
 H          4.28141212    2.96524191    0.14486600
 H          3.71290803    1.38167405    1.97020304
 H          0.83472800    1.24081802    1.82402205
 H          4.44447088    0.48462799   -0.30182499
 H          2.49375105   -0.73866701   -0.68338102
 C          2.26449108    3.14139795   -0.62270999
 H          2.61042190    2.75711298    2.02968788
 H          1.95332205   -0.09481200    1.53824997
 C          0.97972202    2.26306796   -0.65338397
 H          2.55135012    3.41563892   -1.63868499
 H          2.06306291    4.06021023   -0.07124100
 H          0.57968801    2.16146111   -1.65904403
 H          0.20395800    2.65084696    0.00138900
 O          1.76299500   -3.12532210    0.38567501
 O          0.29947999   -3.81711006    1.92777705
 C          2.41016793   -4.92897081    1.80435705
 C          1.40960705   -3.88842893    1.33598495
 H          3.06544495   -5.23824978    0.99135298
 H          1.90152204   -5.79300117    2.22963309
 H          3.02959991   -4.48276281    2.58750296
