55
energy: -1282.395569632952
 C         -2.61778092    0.05448000    0.70869899
 C         -1.09370303    0.21063000    0.78479999
 O         -0.74793202    1.60593700    0.91270399
 C         -0.47231099   -0.28718901   -0.48884901
 O          0.02148800   -1.53477597   -0.56106400
 C         -1.07781196    0.26051000   -1.74935198
 C         -2.60736704    0.08947100   -1.70967197
 C         -3.05494404   -1.35406399   -1.92466998
 O         -2.78042102   -1.68555796   -3.28940892
 O         -3.13965988    0.62873501   -0.49123201
 O         -0.73732001    1.64540100   -1.94490099
 O         -3.17304611    0.74510902    1.78288496
 H         -3.04324698    0.70382702   -2.50003791
 H         -2.87151599   -1.00976801    0.76451802
 H          1.26381695    0.71934599   -0.33299401
 H         -0.68822801   -0.28229699   -2.60914207
 C         -4.56865788    0.49509299    1.99141800
 H         -1.35609496    1.99734294    1.55804801
 H         -2.52834392   -2.03964305   -1.25761700
 H         -4.12716579   -1.41860402   -1.71508896
 H         -0.86327398    2.08761692   -1.08939397
 H          0.21859100   -1.95120502    0.38600999
 H         -2.90633011   -2.63592291   -3.40076208
 H         -4.83869600    0.99683499    2.91793990
 H         -4.75091410   -0.57881802    2.08833790
 H         -5.16498899    0.89515197    1.17032599
 H         -0.73230100   -0.35136399    1.64651299
 C          3.74330211    3.01724792   -0.35310301
 C          2.28783798    2.53097510   -0.20662200
 C          4.66579390    1.80380595   -0.52801102
 C          4.27785587    1.05737197   -1.81134295
 C          2.79299808    0.65180302   -1.73020899
 N          2.25297594    1.03981602   -0.38195199
 H          4.03275013    3.58211207    0.53184903
 H          1.87179601    2.73503995    0.77644598
 H          5.70290279    2.13199806   -0.58957899
 H          4.44006491    1.69386899   -2.68166089
 H          2.64344501   -0.42084500   -1.82760096
 H          3.83178306    3.68035507   -1.21295798
 H          1.62385094    2.94831705   -0.95915800
 C          4.48828506    0.86269897    0.67177600
 H          4.90156507    0.17027199   -1.92828095
 H          2.17515302    1.15975296   -2.46698809
 C          3.02990389    0.36242199    0.71156698
 H          4.72983980    1.38813698    1.59738505
 H          5.16655207    0.01225200    0.58590102
 H          2.52743602    0.60153198    1.64594901
 H          2.94762897   -0.70719802    0.53378600
 O          0.58421302   -2.54845691    1.66124797
 O         -1.57529402   -3.09119797    1.89915705
 C         -0.09561200   -3.52732491    3.72633410
 C         -0.40279701   -3.03294110    2.31980109
 H          0.95298302   -3.80017400    3.83406711
 H         -0.73247302   -4.37367201    3.98415089
 H         -0.31164500   -2.71942902    4.43130779
