55
energy: -1282.381546680898
 C         -2.48365688    0.24522500    1.04948604
 C         -1.68372202   -1.03658497    0.81697297
 O         -0.89705801   -1.28891301    1.95962906
 C         -0.89337301   -0.94466698   -0.49739301
 O         -0.25420099   -2.08366299   -0.89905101
 C         -1.72379601   -0.40796301   -1.66330099
 C         -2.55038309    0.81396401   -1.27296901
 C         -3.55209589    1.17953396   -2.35336304
 O         -4.24499178    2.39688110   -2.07609010
 O         -3.29203606    0.52865702   -0.08000700
 O         -0.89115000   -0.05255800   -2.76237106
 O         -1.59809506    1.28645802    1.34750402
 H         -1.88505101    1.66465294   -1.10015094
 H         -3.19060612    0.09814500    1.87171805
 H         -0.00769800   -0.10757600   -0.29198900
 H         -2.41180801   -1.21282005   -1.95573795
 C         -2.23933911    2.48156404    1.79792500
 H         -0.35548699   -2.09736800    1.81420505
 H         -3.03326702    1.23702395   -3.31262207
 H         -4.31356621    0.40059599   -2.41646004
 H         -0.39480799   -0.84023899   -3.02373910
 H          0.17791000   -2.60263991   -0.11746600
 H         -3.61809611    3.12824988   -2.15307689
 H         -2.83842492    2.93347311    1.00467801
 H         -1.44759095    3.16804910    2.09073997
 H         -2.87931705    2.27072096    2.66006088
 H         -2.42319798   -1.83701301    0.67152900
 C          3.61340594    0.65718901   -0.82588500
 C          2.22889900   -0.03211900   -1.00676405
 C          3.42187405    1.93763900   -0.00427900
 C          2.92730403    1.55765104    1.39635599
 C          1.64968705    0.68076301    1.25256097
 N          1.24969995    0.68145001   -0.16792101
 H          4.03232479    0.88823599   -1.80572104
 H          1.88153696    0.02313600   -2.03581190
 H          4.36385489    2.48291612    0.06469900
 H          3.69195509    0.99788398    1.93580604
 H          0.81537497    1.06275201    1.83167505
 H          4.30219698   -0.01859500   -0.31728801
 H          2.25384808   -1.07309997   -0.69177502
 C          2.35727596    2.80925894   -0.68246001
 H          2.69995403    2.45568609    1.97243297
 H          1.83256197   -0.35078701    1.54051995
 C          0.99965900    2.04726791   -0.66377503
 H          2.64725208    3.02712893   -1.71117496
 H          2.24722290    3.75841904   -0.15713599
 H          0.56581599    1.96798897   -1.65732706
 H          0.27891901    2.51087093    0.00386800
 O          2.75978494   -3.20637608    0.31232101
 O          0.67609102   -3.30802011    1.11421597
 C          2.46293807   -3.58785510    2.66063595
 C          1.95728099   -3.35478497    1.24802196
 H          3.53258896   -3.78797293    2.66801906
 H          1.92544496   -4.41523123    3.12599301
 H          2.26465201   -2.69345093    3.25728989
