55
energy: -1282.379950284211
 C         -2.24122310    0.35066700    1.13922703
 C         -1.34044397   -0.86164802    0.90309399
 O         -0.51430798   -1.03571999    2.03320003
 C         -0.57883698   -0.71330702   -0.42231601
 O          0.16387200   -1.79261506   -0.81232399
 C         -1.47917998   -0.28001201   -1.57796001
 C         -2.39592600    0.87610799   -1.19527996
 C         -3.46434999    1.16066098   -2.23542905
 O         -4.29559183    0.03274000   -2.50700307
 O         -3.08964896    0.55707800    0.02067100
 O         -0.71296901    0.12198900   -2.70897102
 O         -1.44209301    1.46564996    1.40999401
 H         -1.80532897    1.78603697   -1.05995405
 H         -2.91970897    0.15356299    1.97456598
 H          0.21392700    0.20385000   -0.24992900
 H         -2.10290098   -1.14433801   -1.83337104
 C         -2.17236710    2.60612202    1.86700296
 H          0.05161300   -1.82800603    1.89915395
 H         -4.06522703    2.00872588   -1.89264703
 H         -2.98743105    1.43241203   -3.17571306
 H         -0.17939501   -0.63404101   -2.98880792
 H          0.58701199   -2.30726099   -0.02144600
 H         -4.74709988   -0.20630500   -1.68628395
 H         -2.76958799    2.35044694    2.74746108
 H         -2.82770896    2.99631906    1.08566701
 H         -1.43544996    3.36114907    2.13283896
 H         -2.01165700   -1.72268701    0.77748400
 C          3.74249697    1.29416502   -0.92210102
 C          2.41958094    0.48038799   -1.04060197
 C          3.46202111    2.57087111   -0.11950100
 C          3.04573989    2.18082905    1.30363095
 C          1.84423900    1.19489002    1.21911895
 N          1.40866601    1.12542498   -0.18820100
 H          4.10635614    1.53872097   -1.92042899
 H          2.03626800    0.47238901   -2.05801606
 H          4.35384703    3.19792891   -0.09212000
 H          3.87253499    1.70211196    1.82926595
 H          0.99642801    1.52347195    1.81182098
 H          4.50542593    0.69504899   -0.42378300
 H          2.54232097   -0.54642099   -0.70303500
 C          2.30445910    3.33103299   -0.77914500
 H          2.75842309    3.06891108    1.86805904
 H          2.11862993    0.18886000    1.52694702
 C          1.02246296    2.44886994   -0.70923698
 H          2.54364896    3.55654001   -1.81918705
 H          2.12336397    4.27488422   -0.26415801
 H          0.57483399    2.30488706   -1.68924201
 H          0.27826601    2.86200190   -0.03400600
 O          1.15723395   -2.98049998    1.19883394
 O          0.60885400   -4.96528292    0.32354501
 C          1.50315404   -4.90442896    2.54934597
 C          1.04416096   -4.26397085    1.25040495
 H          2.56586909   -4.70043612    2.69795489
 H          1.33979595   -5.98024511    2.53911090
 H          0.96747398   -4.45929098    3.39019489
