34
wb97x-d4 ma-def2-tzvp(-f) cpcm(dmso) E: -955.837626865368, G: -955.60223203
 C         -1.69205594   -0.60988402   -0.36901900
 C         -0.44711599   -0.82092702   -1.23694599
 O          0.06021700   -2.13055611   -1.11864400
 C          0.58353299    0.25673699   -0.90636897
 O          1.73284101    0.17841300   -1.72931600
 C         -0.04555300    1.62910795   -1.09414506
 C         -1.30597699    1.74782395   -0.24631099
 C         -2.05683994    3.04025102   -0.49857900
 O         -3.20442605    3.15367389    0.33895499
 O         -2.21445704    0.69262600   -0.57943100
 O          0.86392701    2.65182590   -0.70445299
 O         -1.35285103   -0.83530998    0.96970397
 H         -1.03560305    1.68359601    0.81394899
 H         -2.49696112   -1.28864002   -0.67373103
 H          0.87997401    0.15667300    0.14450100
 H         -0.31547999    1.75048101   -2.15306997
 C         -2.47932196   -0.83251703    1.84088898
 H          0.74734199   -2.16080999   -0.40539300
 H         -1.41119897    3.88925600   -0.27303299
 H         -2.34469295    3.08794188   -1.55633795
 H          1.72075295    2.39787507   -1.07389998
 H          2.38641810   -0.39917099   -1.25342000
 H         -3.74398398    2.36788392    0.18704200
 H         -2.92503405    0.16424200    1.90775800
 H         -2.12129593   -1.13651204    2.82435393
 H         -3.23687291   -1.54350400    1.49158394
 H         -0.76837099   -0.68496501   -2.27574492
 O          1.95166302   -2.40708899    0.75786698
 O          3.50447106   -1.22028303   -0.33675599
 C          4.21092415   -2.57285595    1.49643505
 C          3.13653898   -2.01658297    0.57133400
 H          5.08865595   -1.92665803    1.51477301
 H          4.51217318   -3.55521011    1.12001503
 H          3.81866288   -2.70693207    2.50543594
