34
wb97x-d4 ma-def2-tzvp(-f) cpcm(dmso) E: -955.837259140282, G: -955.60145033
 C         -2.55486894   -0.73624599   -0.41802001
 C         -1.31795204   -1.56569600   -0.73539698
 O         -1.51900005   -2.90866709   -0.32150799
 C         -0.07815400   -0.96256602   -0.09339300
 O          1.01761401   -1.75337100   -0.51893401
 C          0.05411000    0.49730101   -0.51567203
 C         -1.25128603    1.25178301   -0.25483999
 C         -1.23059702    2.66148496   -0.83490998
 O         -0.31271300    3.50743890   -0.15050399
 O         -2.35099101    0.58701402   -0.88145202
 O          1.07430601    1.16925800    0.20875201
 O         -2.80972409   -0.78788799    0.95549601
 H         -1.41670001    1.31131804    0.82722700
 H         -3.42337298   -1.10166204   -0.97799897
 H         -0.17823900   -1.00348997    0.99874097
 H          0.26668400    0.52599299   -1.59371901
 C         -4.04511118   -0.17481101    1.31601906
 H         -0.65609300   -3.33883095   -0.38795599
 H         -0.98698699    2.60538197   -1.90415096
 H         -2.22520995    3.10181093   -0.73283201
 H          1.97598100    0.82300597   -0.03867400
 H          1.82042599   -1.54916894    0.02773000
 H          0.47732800    2.96474504    0.01321300
 H         -4.01239681    0.90633398    1.15403497
 H         -4.20227480   -0.37829900    2.37493110
 H         -4.86957312   -0.60278302    0.73435402
 H         -1.19007194   -1.52743995   -1.82507396
 O          3.56677508    0.48750800   -0.33350500
 O          3.28120899   -1.39593005    0.83363998
 C          5.49940300   -0.53556103    0.62030602
 C          4.00423384   -0.48394600    0.34634900
 H          5.82175016   -1.55081701    0.85210502
 H          5.71117496    0.10075800    1.48501599
 H          6.06032419   -0.14396200   -0.22937401
