34
wb97x-d4 ma-def2-tzvp(-f) cpcm(dmso) E: -955.830965637682, G: -955.5967117
 C         -2.35541391   -0.67503798   -0.59434402
 C         -1.12304497   -1.57335806   -0.67540902
 O         -1.46671903   -2.91535902   -0.35960001
 C          0.00859000   -1.04175103    0.19672500
 O          1.16182697   -1.82565606   -0.08203800
 C          0.25352201    0.44452599   -0.07713300
 C         -1.05656302    1.22724497   -0.00427700
 C         -0.86839402    2.67407489   -0.42122701
 O         -2.04116702    3.46108890   -0.21957600
 O         -2.02569795    0.66045398   -0.89050198
 O          1.13262296    1.01181698    0.88034499
 O         -2.90481091   -0.82615799    0.68902802
 H         -1.43374801    1.19220698    1.02519405
 H         -3.09100103   -0.96703303   -1.35233700
 H         -0.27446201   -1.14610696    1.25367999
 H          0.66890103    0.54302901   -1.09084404
 C         -4.19076395   -0.22479300    0.82085800
 H         -1.93344402   -2.89483309    0.48636600
 H         -0.01955000    3.09413195    0.12363600
 H         -0.65029699    2.71200204   -1.49149799
 H          1.99206698    0.52401900    0.86276799
 H          1.94905400   -1.38129795    0.29377401
 H         -2.17690611    3.55306697    0.73066503
 H         -4.87874794   -0.62579000    0.06821600
 H         -4.12728024    0.86148602    0.71134198
 H         -4.55607796   -0.46986699    1.81768894
 H         -0.78433698   -1.57808197   -1.71445894
 O          3.87761092    0.51337600   -1.17586398
 O          3.40270996   -0.45814401    0.78259099
 C          5.58098888   -0.79387200   -0.11501200
 C          4.18670511   -0.18377900   -0.19008900
 H          6.26630020   -0.29955199   -0.80383998
 H          5.51031780   -1.85081303   -0.38923800
 H          5.96720600   -0.74123901    0.90440899
