34
wb97x-d4 ma-def2-tzvp(-f) cpcm(dmso) E: -955.832042572759, G: -955.59657031
 C         -2.49354792   -0.76765001   -0.48863700
 C         -1.23736203   -1.59791005   -0.74807602
 O         -1.42403996   -2.93473101   -0.30612299
 C         -0.00514900   -0.94050997   -0.13230300
 O          1.13133597   -1.68012094   -0.55693001
 C          0.06784500    0.52322900   -0.56721199
 C         -1.24837005    1.24427402   -0.28423199
 C         -1.26094306    2.66858912   -0.82909203
 O         -0.40694499    3.53241491   -0.08796300
 O         -2.32526112    0.56220198   -0.93000603
 O          1.08780098    1.23339295    0.12683000
 O         -2.77272296   -0.84799802    0.88370001
 H         -1.41702700    1.27452505    0.79818797
 H         -3.33748007   -1.15801895   -1.06745303
 H         -0.08807600   -0.96891898    0.96307200
 H          0.25248301    0.55194300   -1.65067697
 C         -4.03909111   -0.29678500    1.23883796
 H         -1.68846500   -2.89480305    0.62251002
 H         -0.97744000    2.65156603   -1.88957298
 H         -2.27502298    3.06625390   -0.75208700
 H          1.96283102    0.80013400   -0.04139300
 H          1.94001102   -1.14197600   -0.42590699
 H          0.42683101    3.04907298    0.02962400
 H         -4.04093122    0.79033899    1.12167501
 H         -4.21231890   -0.55002999    2.28412008
 H         -4.83243608   -0.72955298    0.61959702
 H         -1.09296203   -1.65110600   -1.82989001
 O          3.58198500   -0.53108501    1.81354105
 O          3.37719607   -0.07487500   -0.36730200
 C          5.54751110   -0.64267403    0.46936101
 C          4.05674314   -0.39575300    0.66854900
 H          5.86390591   -0.40704501   -0.54638600
 H          5.76259613   -1.69381595    0.67891300
 H          6.11651182   -0.04257600    1.18272197
