34
wb97x-d4 ma-def2-tzvp(-f) cpcm(dmso) E: -955.832261616353, G: -955.59650905
 C         -2.21420288   -0.70248300   -0.56455302
 C         -0.93529099   -1.53604198   -0.58181298
 O         -1.22283900   -2.88520598   -0.24133800
 C          0.14568301   -0.92993802    0.31036100
 O          1.33677697   -1.66726303    0.07444200
 C          0.32301700    0.56365401    0.01011000
 C         -1.02817297    1.27366400    0.00990400
 C         -0.92760301    2.71514797   -0.44899499
 O         -2.18827200    3.37685394   -0.37616301
 O         -1.93631303    0.63850302   -0.89575398
 O          1.11812699    1.21997905    0.98431700
 O         -2.79179001   -0.83942300    0.70610303
 H         -1.44389403    1.24568796    1.02323997
 H         -2.91155696   -1.05257201   -1.33390605
 H         -0.16201700   -1.02754498    1.36119604
 H          0.77695400    0.65831101   -0.98766202
 C         -4.10447788   -0.28892601    0.78918397
 H         -1.71081901   -2.86741710    0.59253699
 H         -0.24283500    3.25842905    0.20108300
 H         -0.53764999    2.74084711   -1.47442997
 H          2.00192904    0.78459501    1.04443097
 H          2.09519792   -1.20399201    0.49304700
 H         -2.81486011    2.85053492   -0.88796401
 H         -4.48971987   -0.53419399    1.77841401
 H         -4.75219917   -0.72828799    0.02248300
 H         -4.08098888    0.79746997    0.66538799
 H         -0.56378400   -1.55011702   -1.60947895
 O          4.79957914    1.22488999    0.02148200
 O          3.39359188   -0.18700901    1.03196299
 C          5.05506086   -1.12553406   -0.38453799
 C          4.37667894    0.07766600    0.25824201
 H          4.31137085   -1.72390199   -0.91683000
 H          5.48293877   -1.75706303    0.39855200
 H          5.84238195   -0.81931603   -1.07305396
