34
wb97x-d4 ma-def2-tzvp(-f) cpcm(dmso) E: -955.832477193467, G: -955.59648799
 C         -2.27172494   -0.67155200   -0.57716900
 C         -1.15915895   -1.71242595   -0.48846799
 O         -1.69626904   -2.98181009   -0.14248900
 C         -0.05567500   -1.26895297    0.46738601
 O          0.99989998   -2.21480989    0.34428599
 C          0.39740801    0.15839800    0.14592800
 C         -0.80190599    1.09591496    0.02978500
 C         -0.43013799    2.48744512   -0.44976601
 O          0.17110001    2.48212194   -1.74162996
 O         -1.75293899    0.59329802   -0.91470599
 O          1.22087002    0.69161600    1.16932797
 O         -2.94077802   -0.66545302    0.65665698
 H         -1.27058303    1.18921399    1.01639104
 H         -2.97078800   -0.92312801   -1.38259196
 H         -0.44867101   -1.27319300    1.49373901
 H          0.93177599    0.14273299   -0.81362301
 C         -4.13568592    0.11289100    0.64182901
 H         -2.23277998   -2.85369802    0.65098500
 H         -1.33319402    3.10884309   -0.45081800
 H          0.29456499    2.92392612    0.23718400
 H          2.05335093    0.15703000    1.21309900
 H          1.83775198   -1.83555305    0.67874700
 H         -0.46158600    2.08554196   -2.35244203
 H         -3.90948105    1.17243195    0.49329999
 H         -4.61700010   -0.02385500    1.60971403
 H         -4.80559492   -0.23024200   -0.15450200
 H         -0.72675401   -1.82187402   -1.48610198
 O          3.29862690   -0.95447701    1.18759203
 O          5.06385422   -1.66637897    0.01832900
 C          4.36716223    0.61029500   -0.25580400
 C          4.25291920   -0.78295499    0.35225600
 H          3.46457601    0.82277399   -0.83560401
 H          5.24092197    0.69035000   -0.90180200
 H          4.42592812    1.35553396    0.54098099
