34
wb97x-d4 ma-def2-tzvp(-f) cpcm(dmso) E: -955.83254796036, G: -955.59643965
 C         -1.43706298   -0.62744701   -0.44281501
 C         -0.16330200   -0.74032599   -1.28493202
 O          0.35269001   -2.05278802   -1.19122303
 C          0.82196498    0.34871501   -0.86643398
 O          1.97087896    0.39261201   -1.70241499
 C          0.14462300    1.70783305   -0.96488899
 C         -1.14200604    1.72016001   -0.15045799
 C         -1.92925799    3.00332403   -0.32864800
 O         -3.09611702    3.01831388    0.48853999
 O         -2.00040603    0.66463703   -0.59421998
 O          0.99906898    2.73201394   -0.47020400
 O         -1.13357198   -0.91692001    0.89130598
 H         -0.90256101    1.58382297    0.91004598
 H         -2.20555711   -1.31612504   -0.81328201
 H          1.12730002    0.18450101    0.17424700
 H         -0.09965900    1.89873195   -2.01930809
 C         -2.29136801   -0.99503601    1.71741903
 H          1.31688404   -2.03079391   -0.98456901
 H         -1.31722200    3.85392308   -0.02775900
 H         -2.19616508    3.11820507   -1.38682902
 H          1.86914599    2.57167411   -0.85879397
 H          2.55530596   -0.34005201   -1.40676105
 H         -3.60670400    2.22925806    0.26883999
 H         -3.00676799   -1.71770704    1.30799103
 H         -2.77777696   -0.01951900    1.80977094
 H         -1.95873499   -1.32885599    2.70017791
 H         -0.46017501   -0.54013503   -2.32305694
 O          2.99797893   -1.85495496   -0.67522597
 O          4.43800211   -1.28564000    0.93346000
 C          2.59317088   -2.70173407    1.51351905
 C          3.42368507   -1.88516903    0.53069401
 H          1.68230903   -2.14155889    1.74548197
 H          3.14054203   -2.88433504    2.43825698
 H          2.29086494   -3.64862490    1.06207502
