34
wb97x-d4 ma-def2-tzvp(-f) cpcm(dmso) E: -955.837297892928, G: -955.60136214
 C         -2.55503011   -0.73991299   -0.39989600
 C         -1.32030499   -1.56969404   -0.72534400
 O         -1.51333797   -2.90984797   -0.29853901
 C         -0.07396900   -0.95940602   -0.10311100
 O          1.01891899   -1.75047898   -0.53523302
 C          0.05039700    0.49731499   -0.53788799
 C         -1.25241697    1.25132704   -0.26396200
 C         -1.24202204    2.65802598   -0.85133600
 O         -0.31653300    3.50897789   -0.18345900
 O         -2.35823607    0.58082998   -0.87385100
 O          1.08120000    1.17513096    0.16611101
 O         -2.79565811   -0.78317201    0.97646201
 H         -1.40475404    1.31585097    0.81974298
 H         -3.42882991   -1.10997403   -0.94845700
 H         -0.16080999   -0.99213302    0.99041498
 H          0.24671900    0.51849198   -1.61917698
 C         -4.02940893   -0.17175600    1.34548402
 H         -0.64950699   -3.33754992   -0.36962199
 H         -1.01251805    2.59704399   -1.92341101
 H         -2.23585391    3.09734702   -0.73818898
 H          1.97833395    0.82433599   -0.08980800
 H          1.82178795   -1.55218506    0.01440500
 H          0.47751099    2.96929908   -0.02963800
 H         -4.17530298   -0.36915499    2.40714312
 H         -4.85821295   -0.60606498    0.77481198
 H         -4.00190783    0.90843099    1.17638695
 H         -1.20561004   -1.53996599   -1.81675506
 O          3.57421803    0.47690800   -0.35986701
 O          3.27578497   -1.39465797    0.82351798
 C          5.49333620   -0.52988398    0.64000499
 C          4.00334883   -0.48510599    0.33791101
 H          6.06817389   -0.09159600   -0.17661700
 H          5.82329321   -1.55125701    0.83143502
 H          5.67720985    0.06448500    1.54032803
