34
wb97x-d4 ma-def2-tzvp(-f) cpcm(dmso) E: -955.830888424957, G: -955.59642703
 C         -2.42703104   -0.66555798   -0.24611300
 C         -1.32333195   -1.52711201   -0.84217399
 O         -1.45071495   -2.86120296   -0.37257999
 C          0.04885200   -0.95444298   -0.52493900
 O          0.98839498   -1.77700603   -1.19965303
 C          0.12351700    0.50677598   -0.96516299
 C         -1.06624901    1.28514004   -0.39861801
 C         -1.12535298    2.69930100   -0.94440001
 O         -2.13065195    3.49033594   -0.31260800
 O         -2.29974103    0.64975297   -0.74873102
 O          1.30520403    1.14453995   -0.49970400
 O         -2.35467505   -0.71528202    1.14946902
 H         -0.96789598    1.32242596    0.69339901
 H         -3.41248894   -1.00468099   -0.58623898
 H          0.21694900   -0.99861002    0.55900103
 H          0.08013000    0.53688598   -2.06384301
 C         -3.44099092   -0.04649300    1.78538895
 H         -0.66327399   -3.33064508   -0.67706001
 H         -0.14117301    3.16360807   -0.83819801
 H         -1.38249803    2.66552997   -2.00593090
 H          2.05498004    0.51546401   -0.54222000
 H          1.90025496   -1.49463904   -0.93208098
 H         -1.86062706    3.64125204    0.60068798
 H         -4.39809990   -0.42414099    1.40788901
 H         -3.39010406    1.03374600    1.62144005
 H         -3.36043310   -0.25739500    2.85151410
 H         -1.46184194   -1.50049400   -1.93059397
 O          3.16310310   -1.74109101    1.49293995
 O          3.33588409   -0.72153097   -0.48992601
 C          5.16145897   -0.50722897    1.01799095
 C          3.78026605   -1.04314399    0.66669703
 H          5.11796808    0.58423102    1.06965697
 H          5.87193108   -0.76916301    0.23067200
 H          5.50828600   -0.89912701    1.97402596
