34
wb97x-d4 ma-def2-tzvp(-f) cpcm(dmso) E: -955.832077823507, G: -955.59633414
 C         -2.33428907   -0.75861400   -0.55058300
 C         -1.03634405   -1.44748294   -0.96310401
 O         -1.08921695   -2.83057094   -0.64548999
 C          0.18869001   -0.76203901   -0.36160901
 O          1.32450998   -1.35858297   -0.96960598
 C          0.11708300    0.74820203   -0.60217100
 C         -1.24117601    1.31193304   -0.18657701
 C         -1.40208197    2.77954292   -0.57180202
 O         -0.56783497    3.63911510    0.19547300
 O         -2.29413390    0.61745697   -0.85413200
 O          1.08531296    1.46684396    0.15356401
 O         -2.52389193   -1.00504696    0.81626701
 H         -1.35160005    1.21123505    0.89906502
 H         -3.17859507   -1.15638804   -1.12482405
 H          0.20124499   -0.93290597    0.72437698
 H          0.25657001    0.93095303   -1.67765796
 C         -3.81073308   -0.61043102    1.28575301
 H         -1.32662404   -2.89663792    0.28888500
 H         -1.19696605    2.89208293   -1.64473999
 H         -2.43671393    3.07749701   -0.38647801
 H          1.99504900    1.11305201   -0.01449500
 H          2.12981200   -0.82896698   -0.77139997
 H          0.29926300    3.20452094    0.23746900
 H         -4.59702206   -1.07493603    0.68017697
 H         -3.92165804    0.47714001    1.25288904
 H         -3.89248204   -0.95372701    2.31674409
 H         -0.96002400   -1.38356102   -2.05148602
 O          3.38613009    0.25681800   -0.33574000
 O          4.55677700    0.86920500    1.46415806
 C          4.75811911   -1.39188600    0.69345200
 C          4.20234299    0.02392000    0.62316799
 H          3.93201709   -2.10599399    0.73883599
 H          5.40556717   -1.52066696    1.56047499
 H          5.32289886   -1.60107899   -0.21886000
