34
wb97x-d4 ma-def2-tzvp(-f) cpcm(dmso) E: -955.832058338842, G: -955.59633329
 C         -2.39945602   -0.78049302   -0.54761702
 C         -1.09882402   -1.57081103   -0.57924598
 O         -1.35407400   -2.91085505   -0.18292400
 C         -0.02893000   -0.92095798    0.28552699
 O          1.15004206   -1.69229198    0.08416800
 C          0.13504399    0.54436600   -0.11584700
 C         -1.22530305    1.24520004   -0.12798600
 C         -1.14917397    2.66368794   -0.67994100
 O         -0.44835100    3.54164100    0.19456300
 O         -2.14373302    0.54641700   -0.97093600
 O          0.95647901    1.26652896    0.79390198
 O         -2.94495702   -0.83442301    0.73756802
 H         -1.61258805    1.28169501    0.89658397
 H         -3.11183691   -1.17744398   -1.27986002
 H         -0.33357799   -0.96255499    1.33917904
 H          0.56275600    0.58163601   -1.12801099
 C         -4.24942923   -0.26366699    0.81183797
 H         -0.50436097   -3.36866093   -0.19362500
 H         -0.67918903    2.64071107   -1.67184496
 H         -2.16364503    3.05363107   -0.79000401
 H          1.86363995    0.85456401    0.82959503
 H          1.92469299   -1.22029805    0.45810401
 H          0.32300499    3.04360890    0.51267803
 H         -4.61852789   -0.45058900    1.81987500
 H         -4.91666222   -0.73722100    0.08268300
 H         -4.21963787    0.81393099    0.62729400
 H         -0.74913198   -1.55126703   -1.61909497
 O          4.33318615    1.21394002   -0.43648201
 O          3.18338490   -0.11676400    0.94127798
 C          5.16220284   -0.99929398   -0.03525200
 C          4.16332293    0.13282099    0.15451300
 H          5.96417618   -0.71199101   -0.71488702
 H          4.64403391   -1.87760794   -0.42910799
 H          5.58542204   -1.27718902    0.93331897
