34
wb97x-d4 ma-def2-tzvp(-f) cpcm(dmso) E: -955.831985928148, G: -955.59630198
 C         -2.46494389   -0.72350103   -0.27071401
 C         -1.35044599   -1.65339196   -0.73067200
 O         -1.55232298   -2.94526100   -0.17723900
 C          0.02285800   -1.10002005   -0.37687501
 O          0.96287298   -1.99526095   -0.95739901
 C          0.15038700    0.32492700   -0.91133702
 C         -1.04085803    1.17106199   -0.45645401
 C         -1.04192996    2.56267595   -1.07905805
 O         -0.01593900    3.38960409   -0.53965402
 O         -2.26911402    0.55462003   -0.84959900
 O          1.32067001    0.98725599   -0.44360799
 O         -2.48574495   -0.67761600    1.12654603
 H         -1.00502503    1.27212298    0.63421202
 H         -3.43451190   -1.06190002   -0.65307701
 H          0.13992700   -1.07991302    0.71414697
 H          0.15307000    0.28062800   -2.00968504
 C         -3.59998608    0.04608100    1.64445996
 H         -0.77643698   -3.46904397   -0.41545999
 H         -0.94088203    2.47474003   -2.16857696
 H         -1.99641895    3.04611206   -0.86105800
 H          2.11171794    0.39766601   -0.51043302
 H          1.87478101   -1.69708705   -0.73067302
 H          0.79037201    2.84996295   -0.52968001
 H         -4.53734207   -0.35127300    1.23921394
 H         -3.52621102    1.11054206    1.40484095
 H         -3.58564997   -0.08479300    2.72592306
 H         -1.42165804   -1.70140302   -1.82474303
 O          4.44720221   -2.10273409    0.93190497
 O          3.30299592   -0.80422097   -0.48010799
 C          4.38087606    0.25547001    1.35834706
 C          4.02972794   -0.99168903    0.55748099
 H          4.84716988    0.99530101    0.70367599
 H          5.04970980    0.02172600    2.18593597
 H          3.46108198    0.69861299    1.74941695
