34
wb97x-d4 ma-def2-tzvp(-f) cpcm(dmso) E: -955.831774993147, G: -955.5962540099999
 C         -2.47750592   -0.73689902   -0.23175600
 C         -1.36222804   -1.67834902   -0.66234100
 O         -1.55927396   -2.94924998   -0.06086100
 C          0.01241100   -1.11197603   -0.33374199
 O          0.94511199   -2.02821398   -0.89193398
 C          0.13766500    0.29978400   -0.90606803
 C         -1.06111598    1.15252900   -0.48360300
 C         -1.07415795    2.52077794   -1.15550601
 O         -0.03868800    3.36915898   -0.67065400
 O         -2.28524089    0.51832801   -0.85875702
 O          1.29805005    0.98173201   -0.44350201
 O         -2.49379110   -0.63900399    1.16174197
 H         -1.03037298    1.28927100    0.60336900
 H         -3.44748497   -1.09063601   -0.59986401
 H          0.13414900   -1.06031299    0.75614601
 H          0.15032700    0.22694200   -2.00313592
 C         -3.60546994    0.10612600    1.65363097
 H         -0.79582000   -3.48788190   -0.30459100
 H         -0.99663901    2.39121699   -2.24307489
 H         -2.02505112    3.01107311   -0.93533301
 H          2.09449410    0.39373600   -0.48623499
 H          1.86158001   -1.70012105   -0.73466098
 H          0.75975001    2.82031989   -0.61606097
 H         -3.59932399    0.00273400    2.73835301
 H         -4.54318619   -0.29416001    1.25172806
 H         -3.52108002    1.16353905    1.38659406
 H         -1.43711996   -1.76708698   -1.75360501
 O          4.46417809   -2.07753897    0.95221603
 O          3.26228404   -0.79692400   -0.42570299
 C          4.47406483    0.29400301    1.30570304
 C          4.04559088   -0.96952403    0.57232398
 H          5.02207422    0.94320101    0.61794698
 H          5.10330391    0.06094900    2.16433001
 H          3.58852100    0.84245598    1.63690996
