34
wb97x-d4 ma-def2-tzvp(-f) cpcm(dmso) E: -955.832224339474, G: -955.59623948
 C         -1.74993706   -0.58410400   -0.44673401
 C         -0.41593099   -0.87861800   -1.13799798
 O         -0.12502700   -2.25667500   -0.99604899
 C          0.66356301    0.04770500   -0.58406699
 O          1.89007497   -0.06078100   -1.29137504
 C          0.20329501    1.49152195   -0.71889299
 C         -1.15200496    1.69196403   -0.05414800
 C         -1.72630799    3.08266306   -0.25674799
 O         -1.89965200    3.41234303   -1.63159394
 O         -2.09880805    0.77807200   -0.61693197
 O          1.13867104    2.37335896   -0.10762700
 O         -1.65122402   -0.93483400    0.90325201
 H         -1.05397201    1.51630604    1.02370000
 H         -2.56128693   -1.14539695   -0.92501700
 H          0.82192999   -0.17504799    0.47874200
 H          0.11274500    1.72549200   -1.78674495
 C         -2.90170789   -0.88551801    1.58402300
 H          0.83532500   -2.39220405   -0.85873002
 H         -2.68164611    3.14620900    0.27696401
 H         -1.04281402    3.82079196    0.16444200
 H          2.01133609    2.09428692   -0.41432399
 H          2.30771303   -0.91635197   -1.02010703
 H         -2.49843597    2.75775003   -2.01091599
 H         -3.26489902    0.14270000    1.67149401
 H         -2.73797607   -1.29814994    2.57939911
 H         -3.64981198   -1.48883796    1.05667198
 H         -0.55190998   -0.63540298   -2.20037508
 O          2.85129094   -3.80566502    1.26883805
 O          2.57112598   -2.49670291   -0.51797199
 C          3.71568608   -1.57236505    1.35605097
 C          2.99687409   -2.72635102    0.66681200
 H          2.99620199   -0.77116400    1.54725099
 H          4.48884583   -1.16895294    0.69846702
 H          4.15867901   -1.88804400    2.30024600
