34
wb97x-d4 ma-def2-tzvp(-f) cpcm(dmso) E: -955.83243921677, G: -955.59616836
 C         -2.38147712   -0.87326699   -0.58421701
 C         -1.62163794   -2.10110211   -0.08208000
 O         -2.52727389   -3.09841299    0.36730301
 C         -0.61934799   -1.69213605    0.98500800
 O          0.17689601   -2.82288790    1.32584298
 C          0.26317501   -0.55334800    0.48864701
 C         -0.60163701    0.61422002    0.00317700
 C          0.17220300    1.74461102   -0.67518699
 O          0.87080300    2.58195400    0.23130301
 O         -1.49890697    0.13673399   -1.01239395
 O          1.11196494   -0.20393801    1.56885600
 O         -3.22299099   -0.45166001    0.45745799
 H         -1.17041898    1.02466404    0.84523898
 H         -2.97868490   -1.12836301   -1.46640301
 H         -1.16342604   -1.34361005    1.87329602
 H          0.86219901   -0.91325301   -0.35770699
 C         -4.17264891    0.53270501    0.05436600
 H         -3.12474799   -2.67515397    0.99848098
 H          0.85538697    1.32063794   -1.42130196
 H         -0.55529302    2.36797309   -1.20086205
 H          1.94138098    0.20521000    1.21068394
 H          0.91168398   -2.47890496    1.85202098
 H          1.71041906    2.13596606    0.45460901
 H         -3.67646003    1.46857095   -0.21619800
 H         -4.83205509    0.70355201    0.90441298
 H         -4.75890398    0.17271499   -0.79813898
 H         -1.08046997   -2.53158808   -0.92780203
 O          3.53255796   -0.47251999   -0.84882498
 O          3.20441890    1.17054200    0.63181400
 C          4.94009495    1.46511304   -0.96694899
 C          3.81085300    0.64043498   -0.36175999
 H          5.49675512    0.89380097   -1.70923603
 H          5.61369324    1.80946302   -0.17959701
 H          4.51189709    2.35127711   -1.44386196
