34
wb97x-d4 ma-def2-tzvp(-f) cpcm(dmso) E: -955.832380863148, G: -955.5960963
 C         -2.41159391   -0.73973203   -0.63227600
 C         -1.16367698   -1.62119496   -0.64354402
 O         -1.50284803   -2.95917702   -0.30998799
 C         -0.07131700   -1.05414402    0.25873700
 O          1.09940004   -1.83349097    0.04661400
 C          0.15530001    0.42263600   -0.06393200
 C         -1.16359496    1.19311404   -0.04879700
 C         -1.00026298    2.63591409   -0.51464099
 O         -0.27429199    3.42584491    0.41939101
 O         -2.09430289    0.59581399   -0.95272201
 O          1.00751603    1.04856706    0.88669997
 O         -3.00148797   -0.86526799    0.63364601
 H         -1.57071602    1.18721497    0.96869498
 H         -3.11427093   -1.06266296   -1.40848804
 H         -0.39203900   -1.13069606    1.30693400
 H          0.59029800    0.49295700   -1.07123494
 C         -4.30624485   -0.29493999    0.70642602
 H         -1.99977195   -2.92588592    0.51819098
 H         -0.51065803    2.64194489   -1.49734497
 H         -1.99086297    3.08357310   -0.62228298
 H          1.88888502    0.58673698    0.89203399
 H          1.88634801   -1.33142602    0.33881900
 H          0.47784299    2.88140988    0.70410001
 H         -4.95663500   -0.73091501   -0.05993700
 H         -4.26587582    0.78983098    0.57417601
 H         -4.69978619   -0.52678698    1.69562197
 H         -0.78296298   -1.64515400   -1.66756201
 O          3.80927801    0.78853500   -1.06885004
 O          3.28666496   -0.30758399    0.80971497
 C          5.49300909   -0.56929201   -0.03705700
 C          4.09634495    0.03280200   -0.12201900
 H          6.18145084   -0.07019300   -0.71896303
 H          5.43240595   -1.62787294   -0.30650499
 H          5.86845589   -0.51048100    0.98634100
