34
wb97x-d4 ma-def2-tzvp(-f) cpcm(dmso) E: -955.831482086877, G: -955.59601485
 C         -1.40143597   -0.40925899   -0.72870600
 C          0.12711000   -0.34477800   -0.78197598
 O          0.63207400   -1.66184497   -0.67890298
 C          0.64652401    0.61203998    0.29198301
 O          2.03591895    0.88316399    0.16238800
 C         -0.05695500    1.95728099    0.17245699
 C         -1.56751704    1.78411901    0.18286601
 C         -2.30699396    3.07993197   -0.08041200
 O         -3.71875095    2.89383197   -0.02778300
 O         -1.94699800    0.89081901   -0.86913002
 O          0.30573800    2.81053901    1.25251603
 O         -1.79706895   -1.01380801    0.46719900
 H         -1.88330495    1.37456000    1.14863598
 H         -1.79171097   -0.97129297   -1.58535600
 H          0.43643400    0.19076200    1.28347600
 H          0.23997800    2.41498804   -0.78145999
 C         -3.19741988   -1.27194595    0.52253997
 H          1.51344204   -1.66791105   -0.23723400
 H         -2.05266595    3.80984807    0.68852401
 H         -2.00453305    3.47735810   -1.05747700
 H          1.26835203    2.76778507    1.32182300
 H          2.53213596    0.06949400    0.41524899
 H         -3.93444896    2.18397593   -0.64527398
 H         -3.76989889   -0.34138399    0.58022600
 H         -3.37479401   -1.86355901    1.42045605
 H         -3.51826906   -1.83824694   -0.35928100
 H          0.38479501    0.08248400   -1.76101899
 O          5.19265509   -1.57119703    0.60480702
 O          2.96038103   -1.55220103    0.66213799
 C          4.01614523   -3.42372489   -0.35856900
 C          4.08398104   -2.07793689    0.35189599
 H          3.34436703   -3.35683799   -1.21775198
 H          3.59929705   -4.16738605    0.32610899
 H          5.00343895   -3.74966693   -0.68495601
