34
wb97x-d4 ma-def2-tzvp(-f) cpcm(dmso) E: -955.831915258571, G: -955.5960031
 C         -2.34667206   -0.76455301   -0.63071799
 C         -1.04025805   -1.54563797   -0.64652997
 O         -1.30341601   -2.90506911   -0.33056900
 C         -0.01278400   -0.93605000    0.29585201
 O          1.18047798   -1.68832803    0.10703900
 C          0.15761100    0.54853302   -0.02492200
 C         -1.20559704    1.24291599   -0.06081800
 C         -1.11571002    2.68678498   -0.54072499
 O         -0.45573500    3.52643299    0.40026101
 O         -2.08299494    0.58324403   -0.97554702
 O          0.93334502    1.23236001    0.95245397
 O         -2.94621706   -0.88552201    0.62508601
 H         -1.63558400    1.22672904    0.94720697
 H         -3.02427912   -1.12792397   -1.41178095
 H         -0.36268800   -1.03209496    1.33176804
 H          0.62759697    0.63782197   -1.01495504
 C         -4.25937986   -0.33181399    0.66939598
 H         -0.45058700   -3.35712099   -0.32306099
 H         -0.60685301    2.71261501   -1.51319695
 H         -2.12760210    3.07657599   -0.67285001
 H          1.83175194    0.81107199    1.02886295
 H          1.93257701   -1.22444201    0.53641701
 H          0.30652499    3.01965404    0.72541898
 H         -4.88484192   -0.76545399   -0.11909400
 H         -4.23289919    0.75532699    0.55191302
 H         -4.67489815   -0.58290100    1.64492297
 H         -0.64681298   -1.47081006   -1.66811895
 O          4.38330078    1.32897794   -0.14171401
 O          3.18262601   -0.13311400    1.04549694
 C          5.03001499   -0.98053902   -0.18514600
 C          4.14607477    0.17588900    0.26019999
 H          5.43315506   -1.49341905    0.69138598
 H          5.84780598   -0.63601398   -0.81782597
 H          4.42294407   -1.70412600   -0.73610997
