34
wb97x-d4 ma-def2-tzvp(-f) cpcm(dmso) E: -955.832102403357, G: -955.59600161
 C         -2.65748811   -0.71588898   -0.49644199
 C         -1.95890796   -2.06564689   -0.33843401
 O         -2.85658002   -3.03555012    0.18129100
 C         -0.71333200   -1.90370703    0.51443601
 O          0.00010000   -3.13625193    0.52424502
 C          0.17400800   -0.78566599   -0.02098300
 C         -0.62694401    0.51283997   -0.15657599
 C          0.09992600    1.65330100   -0.87216300
 O          1.07668197    2.30584598   -0.08194600
 O         -1.77545702    0.26527500   -0.98512101
 O          1.26027405   -0.68428999    0.88244200
 O         -3.19706988   -0.37919599    0.75445902
 H         -0.94516098    0.85377002    0.83547902
 H         -3.45545292   -0.78184199   -1.24433196
 H         -1.01098597   -1.64330804    1.53924298
 H          0.53341103   -1.07328999   -1.01933706
 C         -4.09064579    0.73056000    0.70046002
 H         -3.26349592   -2.65008998    0.96872002
 H          0.53996903    1.27121902   -1.80205905
 H         -0.65618700    2.39643908   -1.13929701
 H          2.03467202   -0.27959999    0.41312900
 H          0.85975999   -2.93759894    0.91937602
 H          1.91159201    1.79753196   -0.16217700
 H         -3.55878496    1.64765596    0.43217900
 H         -4.52301693    0.83740503    1.69479001
 H         -4.88660717    0.54477203   -0.02922700
 H         -1.66734505   -2.41492796   -1.33209395
 O          3.15044594    0.61864603   -0.43742600
 O          4.84735489   -0.27647299    0.70555502
 C          5.12258005    1.92625701   -0.20121001
 C          4.33257484    0.64967698    0.05205300
 H          5.13052607    2.15153599   -1.27007306
 H          6.14491510    1.84208095    0.16668600
 H          4.62467003    2.75851893    0.30435300
