34
wb97x-d4 ma-def2-tzvp(-f) cpcm(dmso) E: -955.831545872556, G: -955.59591638
 C         -2.64639497   -0.69451499   -0.50800401
 C         -2.00314307   -2.06908607   -0.33135900
 O         -2.94741988   -3.00838804    0.16303299
 C         -0.77473700   -1.95449901    0.55536997
 O         -0.10727800   -3.21277189    0.57231402
 C          0.16757400   -0.86313999    0.05794900
 C         -0.58565903    0.46162099   -0.10410800
 C          0.20233600    1.57994103   -0.78818500
 O          1.17631900    2.18861103    0.03847900
 O         -1.71087694    0.24889900   -0.97337198
 O          1.21986198   -0.80078101    1.00829506
 O         -3.20620894   -0.33709401    0.72854000
 H         -0.92759001    0.81053197    0.87685299
 H         -3.42646194   -0.72936499   -1.27610600
 H         -1.09235895   -1.69184804    1.57335305
 H          0.55836201   -1.15991700   -0.92483699
 C         -4.00135899    0.84579200    0.66914099
 H         -3.35810900   -2.61344504    0.94401699
 H          0.65839398    1.18714595   -1.70586896
 H         -0.51829797    2.35018301   -1.07539403
 H          2.02296305   -0.42996901    0.57963800
 H          0.73282403   -3.06265712    1.02614701
 H          1.98548305    1.62804997   -0.00030100
 H         -3.37809706    1.72783899    0.49918401
 H         -4.50652313    0.93695700    1.62988102
 H         -4.74523211    0.76791799   -0.13135700
 H         -1.69716501   -2.42776990   -1.31698406
 O          3.19240594    0.46527901   -0.29558200
 O          5.29122686   -0.26206401   -0.05282200
 C          4.92040205    2.09632206   -0.28953001
 C          4.45301294    0.64771497   -0.19963799
 H          4.42100286    2.69015408    0.48021099
 H          4.63030577    2.50888705   -1.25928402
 H          6.00044203    2.17546391   -0.16967200
