34
wb97x-d4 ma-def2-tzvp(-f) cpcm(dmso) E: -955.831467476709, G: -955.5958587
 C         -1.36773300   -0.39094600   -0.81523597
 C          0.14896999   -0.34825200   -0.61120898
 O          0.62449402   -1.67941201   -0.60531199
 C          0.48282799    0.44509199    0.65166003
 O          1.87286103    0.71135598    0.78871101
 C         -0.19558001    1.80732906    0.58866000
 C         -1.68956900    1.66662502    0.33605799
 C         -2.40045810    2.99376798    0.14519800
 O         -1.87928998    3.74465799   -0.94703799
 O         -1.89523602    0.92131197   -0.86727601
 O         -0.01684600    2.51736593    1.80992305
 O         -1.95198405   -1.14475906    0.20795700
 H         -2.15317392    1.14998305    1.18458402
 H         -1.60596704   -0.83141202   -1.79054594
 H          0.11377700   -0.09988400    1.53016996
 H          0.25091100    2.37063909   -0.23976099
 C         -3.33453298   -1.40373099   -0.01857400
 H          1.49595904   -1.73741102   -0.14821599
 H         -3.46956110    2.79854608    0.00153000
 H         -2.27418995    3.60328794    1.04063702
 H          0.92115802    2.45113397    2.03021312
 H          2.35461497   -0.13976300    0.90498298
 H         -1.96777701    3.20037103   -1.73878896
 H         -3.66524506   -2.07911801    0.77026802
 H         -3.47956300   -1.88113797   -0.99459898
 H         -3.92178988   -0.48170999    0.02153700
 H          0.56295502    0.20190901   -1.46782303
 O          5.10715580   -1.47734201    0.74369901
 O          2.89258099   -1.75830603    0.83559102
 C          4.10227823   -3.08142304   -0.72711998
 C          4.05329609   -2.02135706    0.36530599
 H          3.66868901   -4.01128483   -0.35051799
 H          5.12368202   -3.26170111   -1.06117904
 H          3.49228096   -2.75442505   -1.57348895
