34
wb97x-d4 ma-def2-tzvp(-f) cpcm(dmso) E: -955.836411604855, G: -955.6012799499999
 C         -2.24820805   -0.61699301   -0.27623001
 C         -1.20571101   -1.38305295   -1.09273100
 O         -1.23451900   -2.76011300   -0.74611998
 C          0.17966700   -0.76396698   -0.92664802
 O          1.08968699   -1.40979898   -1.79454803
 C          0.11332600    0.73765802   -1.21433794
 C         -0.96881402    1.39057100   -0.35514900
 C         -1.17334402    2.85186911   -0.69896901
 O         -2.15445399    3.45818090    0.13996600
 O         -2.23368192    0.75582701   -0.59080201
 O          1.36120403    1.37451398   -1.01969802
 O         -1.97642601   -0.86240202    1.07885301
 H         -0.70316201    1.29793704    0.70466399
 H         -3.25874090   -0.96065700   -0.52413797
 H          0.49826899   -0.90309298    0.11511300
 H         -0.16070899    0.86868000   -2.26930404
 C         -3.00103807   -0.39696300    1.95383298
 H         -1.14993095   -2.80984211    0.21521300
 H         -0.24107499    3.39546990   -0.54888803
 H         -1.46425498    2.93598390   -1.75393701
 H          1.87137902    0.92077798   -0.30148101
 H          1.98416698   -1.34913898   -1.37461805
 H         -2.95167899    2.91766810    0.07759600
 H         -3.96927190   -0.82631600    1.67295301
 H         -3.06845999    0.69445199    1.93199396
 H         -2.73373389   -0.72473401    2.95804095
 H         -1.49352396   -1.32347596   -2.14574504
 O          2.93196607    0.22951700    0.83406597
 O          3.47743511   -1.40832305   -0.59067100
 C          4.83901119   -1.09603405    1.35040605
 C          3.65681696   -0.73417401    0.46016899
 H          4.49765015   -1.22540903    2.37987709
 H          5.55581903   -0.27032700    1.34311104
 H          5.33433914   -2.00429010    1.00815904
