34
wb97x-d4 ma-def2-tzvp(-f) cpcm(dmso) E: -955.830735301599, G: -955.59585578
 C         -2.46918797   -0.80245399   -0.55378097
 C         -1.59209502   -2.02844405   -0.33143800
 O         -2.35871506   -3.16036606    0.05929100
 C         -0.49729300   -1.72619402    0.68361199
 O          0.39736500   -2.83085299    0.78017801
 C          0.28681800   -0.48904499    0.27203599
 C         -0.67511702    0.68075800    0.01207400
 C         -0.02301900    1.91034305   -0.62684500
 O          0.76161402    2.68397188    0.26119301
 O         -1.67904794    0.29573399   -0.93965697
 O          1.19822395   -0.19114199    1.31544006
 O         -3.18028092   -0.57542300    0.63366503
 H         -1.14602494    0.96955001    0.95891798
 H         -3.16622591   -0.96441102   -1.38386500
 H         -0.95646399   -1.53510702    1.66240501
 H          0.82563698   -0.71277201   -0.65898103
 C         -4.17975092    0.43347400    0.50725198
 H         -2.92801905   -2.88240790    0.78985500
 H          0.56993401    1.59098601   -1.49146700
 H         -0.83565003    2.54721594   -0.98689902
 H          1.90689504    0.39089501    0.96863502
 H         -0.14441501   -3.61260104    0.94729501
 H          1.65621996    2.27591395    0.32027501
 H         -4.74153805    0.44250599    1.44075894
 H         -4.85390711    0.20241500   -0.32495499
 H         -3.72527790    1.41466200    0.34480801
 H         -1.12622595   -2.28600502   -1.28565598
 O          3.28328395    1.12901103   -1.69876504
 O          3.18603492    1.49594998    0.50615603
 C          5.32208109    1.06165099   -0.44018999
 C          3.81584907    1.24280405   -0.57819003
 H          5.74839401    1.89766300    0.11841200
 H          5.80410480    0.98117101   -1.41431904
 H          5.51580000    0.15054700    0.13274901
