34
wb97x-d4 ma-def2-tzvp(-f) cpcm(dmso) E: -955.832246831224, G: -955.59583205
 C         -1.74238801   -0.60171598   -0.31777900
 C         -0.45074099   -1.02551901   -1.02248502
 O         -0.16337401   -2.36764097   -0.67725003
 C          0.66762698   -0.04042100   -0.68739498
 O          1.84628105   -0.27124801   -1.44519103
 C          0.21623100    1.37623799   -1.01094496
 C         -1.10065103    1.69417799   -0.31951800
 C         -1.66603601    3.03926206   -0.72767699
 O         -2.87113190    3.33272099   -0.02589300
 O         -2.08181810    0.72094101   -0.69693500
 O          1.19120204    2.32137299   -0.58231598
 O         -1.57593405   -0.72447300    1.06462705
 H         -0.95783502    1.67368197    0.76660597
 H         -2.58545709   -1.21584797   -0.65498197
 H          0.89378601   -0.10063800    0.38512000
 H          0.07408000    1.45241201   -2.09801507
 C         -2.78196096   -0.50945997    1.79208100
 H          0.80556703   -2.51066399   -0.61291301
 H         -0.95367098    3.82686210   -0.48044401
 H         -1.83825195    3.04723692   -1.81127405
 H          2.04549098    1.98240900   -0.88023698
 H          2.27458405   -1.08690500   -1.08252001
 H         -3.48024106    2.60241604   -0.19044200
 H         -3.11515999    0.52909100    1.70701599
 H         -2.56613302   -0.73696399    2.83579707
 H         -3.57368112   -1.17401302    1.42768502
 H         -0.64749700   -0.95332199   -2.10073090
 O          2.72705102   -3.67280293    1.52333701
 O          2.55178308   -2.59282708   -0.42199799
 C          3.81958604   -1.54969001    1.30455196
 C          2.97273803   -2.70342302    0.78289998
 H          4.19071579   -1.75079000    2.30927491
 H          3.21502090   -0.63838702    1.31829298
 H          4.66022015   -1.37207401    0.62965298
