34
wb97x-d4 ma-def2-tzvp(-f) cpcm(dmso) E: -955.831481405924, G: -955.59581193
 C         -1.49506998   -0.72229999   -0.58039498
 C         -0.17073400   -0.73659903   -1.34846604
 O          0.38993600   -2.03464794   -1.31152594
 C          0.74942398    0.35640201   -0.80928397
 O          1.93095195    0.50076300   -1.58506799
 C          0.01719500    1.68728805   -0.85118502
 C         -1.31059098    1.60351503   -0.10601400
 C         -2.13682604    2.87834191   -0.22779199
 O         -1.58683097    3.95138001    0.53016800
 O         -2.09963012    0.55843699   -0.67581803
 O          0.80054402    2.71698689   -0.24760900
 O         -1.25982702   -1.09254003    0.74640203
 H         -1.12038505    1.39929605    0.95384902
 H         -2.21607494   -1.40490794   -1.04448795
 H          1.01117599    0.13370000    0.23233899
 H         -0.18546800    1.94404101   -1.89949203
 C         -2.45665598   -1.29608297    1.49238002
 H          1.33566499   -1.99369001   -1.03637302
 H         -2.22920489    3.15367103   -1.28626800
 H         -3.13714910    2.68805695    0.16592100
 H          1.66785097    2.70039797   -0.67224401
 H          2.53137898   -0.23082100   -1.31599295
 H         -0.64672601    4.00281715    0.30497399
 H         -2.99567389   -0.35550800    1.63879704
 H         -2.16148090   -1.70054102    2.46023607
 H         -3.11083293   -2.01107097    0.98043603
 H         -0.41727799   -0.48311701   -2.38789701
 O          2.98114491   -1.74918997   -0.60061502
 O          4.15653706   -0.96708798    1.12943494
 C          2.60198498   -2.74906301    1.52558899
 C          3.31234598   -1.73822701    0.63545698
 H          2.77749300   -3.75824404    1.14466798
 H          1.52431798   -2.56940293    1.48936403
 H          2.94849205   -2.68205190    2.55651212
