34
wb97x-d4 ma-def2-tzvp(-f) cpcm(dmso) E: -955.83233295306, G: -955.59577612
 C         -1.74192202   -0.58257902   -0.38731501
 C         -0.45215601   -0.96703202   -1.11802006
 O         -0.17378099   -2.33194709   -0.86873400
 C          0.67260802   -0.01724000   -0.71142900
 O          1.85392904   -0.21564101   -1.47377205
 C          0.23482300    1.42131996   -0.94305402
 C         -1.08022499    1.70250797   -0.23136701
 C         -1.63032198    3.07872796   -0.54869097
 O         -2.82702088    3.34412599    0.17738099
 O         -2.06959295    0.76616299   -0.67244899
 O          1.21753097    2.32744908   -0.45426100
 O         -1.57751596   -0.80722898    0.98250198
 H         -0.93745601    1.60859501    0.85097599
 H         -2.58889198   -1.16550601   -0.76790100
 H          0.88956600   -0.14926299    0.35634199
 H          0.09188500    1.56826496   -2.02294803
 C         -2.78238392   -0.63807499    1.72344196
 H          0.79109597   -2.47568107   -0.76520699
 H         -0.90480500    3.83856297   -0.25700000
 H         -1.80702305    3.15713692   -1.62887394
 H          2.07001901    1.99416804   -0.76383299
 H          2.28383994   -1.03607798   -1.12498796
 H         -3.45053411    2.63888597   -0.03551700
 H         -3.10550904    0.40718299    1.72030497
 H         -2.57171988   -0.94878000    2.74661493
 H         -3.58018589   -1.26405501    1.30727100
 H         -0.64421099   -0.81712502   -2.18900704
 O          2.53453493   -2.56843591   -0.50302303
 O          2.64165211   -3.68997407    1.42443001
 C          3.78017092   -1.58480096    1.27213705
 C          2.92582703   -2.71316290    0.70763397
 H          4.18374920   -1.84199405    2.25124788
 H          3.15979409   -0.68832701    1.36412096
 H          4.59423208   -1.35016799    0.58298701
