34
wb97x-d4 ma-def2-tzvp(-f) cpcm(dmso) E: -955.830522641851, G: -955.59577072
 C         -2.15552902   -0.65332699    0.07388900
 C         -1.77465606   -1.77112198   -0.89329201
 O         -2.07468796   -3.04081702   -0.33258599
 C         -0.30934200   -1.64293504   -1.30748498
 O          0.03116900   -2.62399912   -2.28208089
 C         -0.00655400   -0.22341800   -1.80413103
 C         -0.47681800    0.81170100   -0.77516103
 C         -0.38844001    2.26549101   -1.24084604
 O          0.92657799    2.78147197   -1.28789103
 O         -1.86602402    0.60789800   -0.47909299
 O          1.36244905   -0.07330700   -2.11730909
 O         -1.46555197   -0.89531100    1.27169096
 H          0.11066200    0.69677597    0.14176200
 H         -3.23610806   -0.64805400    0.25727201
 H          0.32797700   -1.85564494   -0.44369200
 H         -0.56867999   -0.06126100   -2.73387909
 C         -1.86574805   -0.03524900    2.33598995
 H         -1.66543198   -3.06607199    0.54256999
 H         -0.81795597    2.35364294   -2.24425411
 H         -1.01534903    2.85437989   -0.55705899
 H          1.87200904   -0.01542900   -1.27255094
 H         -0.47584099   -2.43929791   -3.08272409
 H          1.40610301    2.50254011   -0.46915701
 H         -1.36525404   -0.39037201    3.23636293
 H         -2.95147705   -0.08002200    2.47641492
 H         -1.56838000    0.99791503    2.13600993
 H         -2.40333891   -1.66949797   -1.78297400
 O          2.26919103    2.07319188    0.93421400
 O          2.79154301    0.02903000    0.18205400
 C          3.49589610    0.62418097    2.37850404
 C          2.78819108    0.93077701    1.06426299
 H          4.56221485    0.83546603    2.25179791
 H          3.39099598   -0.43032300    2.63757992
 H          3.11618400    1.25099599    3.18579006
