34
wb97x-d4 ma-def2-tzvp(-f) cpcm(dmso) E: -955.832403116135, G: -955.59575863
 C         -2.09765410   -0.68916702   -0.47326601
 C         -0.81827903   -1.26288104   -1.07604694
 O         -0.74999303   -2.66197395   -0.83926499
 C          0.41855401   -0.52770102   -0.56675398
 O          1.52354503   -0.99082500   -1.32519197
 C          0.23519599    0.98645800   -0.70509201
 C         -1.10104704    1.43708503   -0.11833500
 C         -1.40598202    2.90180898   -0.37928399
 O         -1.47464204    3.20959997   -1.76892900
 O         -2.18245506    0.69899201   -0.69580001
 O          1.23897696    1.72147000   -0.01735000
 O         -2.09866595   -1.01678598    0.89079899
 H         -1.08050001    1.28030705    0.96618301
 H         -2.97923708   -1.11742902   -0.96347201
 H          0.55972600   -0.76384699    0.49793199
 H          0.25092199    1.22663403   -1.77636397
 C         -3.33971906   -0.74166101    1.53546405
 H         -0.87677002   -2.79229093    0.10981100
 H         -2.35054803    3.15569901    0.11583600
 H         -0.61265898    3.51751590    0.04458100
 H          2.10190010    1.25948000   -0.07097100
 H          2.34710789   -0.61716503   -0.92855799
 H         -2.15754104    2.64812589   -2.15520811
 H         -3.53931904    0.33353701    1.55590105
 H         -3.25785708   -1.11604404    2.55554104
 H         -4.15995884   -1.25386000    1.02026606
 H         -0.87348902   -1.13389099   -2.16000199
 O          4.60529709    0.43633500    1.82671106
 O          3.55160093    0.25676399   -0.13532600
 C          4.07301903   -1.75699306    1.02017105
 C          4.09004879   -0.23644499    0.91472000
 H          3.03611398   -2.09455109    1.10563600
 H          4.63749599   -2.10075998    1.88656795
 H          4.48681784   -2.19553900    0.10909400
