34
wb97x-d4 ma-def2-tzvp(-f) cpcm(dmso) E: -955.830837030711, G: -955.5956542399999
 C         -1.82824898   -0.63768899   -0.53169399
 C         -0.41843399   -0.87623900   -1.08083296
 O         -0.08607600   -2.23286200   -0.85918200
 C          0.56306398    0.12124000   -0.46405399
 O          1.83111203    0.11475300   -1.10445702
 C          0.01942200    1.53233004   -0.63532001
 C         -1.40118003    1.66114104   -0.10155200
 C         -2.01857090    3.02412295   -0.39396900
 O         -1.42710495    4.06488800    0.37557599
 O         -2.22792792    0.70290297   -0.76192200
 O          0.84199399    2.47643709    0.05037800
 O         -1.85408604   -0.96360302    0.82748002
 H         -1.40574098    1.48852706    0.98054200
 H         -2.55688095   -1.24570405   -1.08051705
 H          0.67530799   -0.09320800    0.60646200
 H          0.00677700    1.76543605   -1.70853400
 C         -3.16939807   -0.95470297    1.37498999
 H          0.88978702   -2.35081410   -0.82047600
 H         -1.93585598    3.23553991   -1.46799397
 H         -3.07783794    2.99158502   -0.13028400
 H          1.74348903    2.35441709   -0.27334499
 H          2.26391101   -0.75797403   -0.94069600
 H         -0.46766400    3.97080112    0.28595200
 H         -3.83097291   -1.60653698    0.79271400
 H         -3.58479905    0.05711900    1.39256406
 H         -3.09193397   -1.33183098    2.39452791
 H         -0.46627101   -0.66800600   -2.15878510
 O          2.61457300   -2.37571907   -0.66440099
 O          2.81326509   -3.85616803    0.99553102
 C          4.17483616   -1.88247097    1.06144297
 C          3.12332106   -2.78943396    0.43479201
 H          4.56788492   -2.30642796    1.98516202
 H          3.72901297   -0.90558100    1.26777196
 H          4.99122477   -1.72627294    0.35213199
