34
wb97x-d4 ma-def2-tzvp(-f) cpcm(dmso) E: -955.836419489901, G: -955.60124251
 C         -2.26529694   -0.61924601   -0.23134100
 C         -1.19999397   -1.26931500   -1.10594296
 O         -1.18797195   -2.67221999   -0.89115500
 C          0.16668200   -0.65627599   -0.83861500
 O          1.09653902   -1.27387500   -1.71026099
 C          0.09206600    0.85287797   -1.04556096
 C         -1.03660905    1.43186796   -0.18553101
 C         -1.28189194    2.90816498   -0.43719700
 O         -1.67117405    3.17506409   -1.78270197
 O         -2.27925110    0.77402699   -0.47437099
 O          1.31595302    1.49946404   -0.75106198
 O         -2.01054811   -0.91985297    1.11060202
 H         -0.78143197    1.30015004    0.87312901
 H         -3.26622510   -0.96738201   -0.51231700
 H          0.44727799   -0.85817897    0.20241700
 H         -0.14220101    1.04338503   -2.09869599
 C         -3.04803610   -0.48337001    1.98466599
 H         -0.37199000   -2.99077106   -1.30094194
 H         -2.04963207    3.26377892    0.25985599
 H         -0.36045301    3.46185708   -0.25625199
 H          1.84617901    0.95734298   -0.11476000
 H          1.96130502   -1.33812797   -1.22367597
 H         -2.44880390    2.63358593   -1.96571898
 H         -4.01401711   -0.89476699    1.66971695
 H         -3.11156201    0.60828602    2.00851202
 H         -2.80114889   -0.85421902    2.97918892
 H         -1.47770703   -1.05425799   -2.14632607
 O          2.92062998    0.22249299    0.98040998
 O          3.33745694   -1.53830600   -0.33741000
 C          4.77926922   -1.17458606    1.52216697
 C          3.58019996   -0.80337203    0.66040403
 H          4.65633583   -0.80929101    2.54222393
 H          5.66821194   -0.70129198    1.09390199
 H          4.93783712   -2.25364208    1.52264297
