34
wb97x-d4 ma-def2-tzvp(-f) cpcm(dmso) E: -955.830934063529, G: -955.59554372
 C         -1.47865403   -0.68281698   -0.43520400
 C         -0.20524800   -0.83827901   -1.27050102
 O          0.31833899   -2.14068794   -1.09758699
 C          0.77007103    0.27921799   -0.91276801
 O          1.92301500    0.28155401   -1.74380600
 C          0.08528500    1.62662399   -1.09082901
 C         -1.20843804    1.68080795   -0.28380501
 C         -1.98205602    2.96110201   -0.53971201
 O         -3.12072206    3.09384704    0.30781901
 O         -2.05281305    0.59102201   -0.66173202
 O          0.94051498    2.67674589   -0.65543699
 O         -1.16765106   -0.89220703    0.91391098
 H         -0.96434700    1.61231601    0.78364700
 H         -2.24214101   -1.39948702   -0.76013601
 H          1.07029402    0.17794000    0.13737699
 H         -0.15697400    1.75582600   -2.15535808
 C         -2.32096791   -0.92093098    1.74920702
 H          1.28597701   -2.10432506   -0.92996901
 H         -1.30885005    3.81502390   -0.42222899
 H         -2.35759401    2.95307803   -1.56591594
 H          1.81414604    2.48276210   -1.02058601
 H          2.51897001   -0.41870099   -1.39108205
 H         -2.80654407    3.22902012    1.20966601
 H         -2.80795503    0.05777500    1.78553700
 H         -1.98344195   -1.19527400    2.74851394
 H         -3.03816009   -1.66710997    1.38788402
 H         -0.50177699   -0.70130199   -2.31874204
 O          2.98619199   -1.87412000   -0.58465600
 O          4.15431023   -0.90170401    1.05296099
 C          2.74193406   -2.75637698    1.61265504
 C          3.35273099   -1.75905704    0.63572103
 H          2.96434093   -3.77356291    1.28119397
 H          1.65482700   -2.64106011    1.61145794
 H          3.12338090   -2.60765791    2.62250400
