34
wb97x-d4 ma-def2-tzvp(-f) cpcm(dmso) E: -955.830415807814, G: -955.59539278
 C         -1.69709301   -0.53949201   -0.69068301
 C         -0.19049200   -0.78265798   -0.56714302
 O         -0.00205800   -2.16057110   -0.31620401
 C          0.40674299    0.13348600    0.50327498
 O          1.82775998    0.14239199    0.49769700
 C         -0.01557800    1.56955600    0.23201200
 C         -1.52717400    1.69202006    0.10418400
 C         -1.97437501    3.09734297   -0.27985901
 O         -1.83002400    4.02023315    0.79422998
 O         -1.96292996    0.82895601   -0.94558501
 O          0.41903400    2.43572903    1.28008795
 O         -2.33101702   -0.98412502    0.47375700
 H         -2.00337410    1.41221595    1.05048299
 H         -2.09497499   -1.07011294   -1.56370604
 H          0.02942500   -0.17140600    1.48818803
 H          0.43530899    1.88656604   -0.71784800
 C         -3.75190592   -0.96276700    0.37036699
 H          0.93668902   -2.34191704   -0.07305700
 H         -1.41240704    3.43080997   -1.16178894
 H         -3.03510499    3.06810188   -0.53807998
 H          1.37555301    2.33191800    1.35883796
 H          2.16818500   -0.77814001    0.58166403
 H         -0.92873198    3.91731596    1.13233399
 H         -4.07985401   -1.51227295   -0.51973403
 H         -4.12980604    0.06250200    0.31934801
 H         -4.14360189   -1.44996905    1.26308703
 H          0.25281900   -0.50128001   -1.53258204
 O          2.55937099   -2.42725205    0.45636100
 O          3.27603889   -3.79309011   -1.15896404
 C          4.75990295   -2.08045602   -0.37320501
 C          3.43984199   -2.84017396   -0.37518701
 H          5.16246605   -2.04299688    0.64156997
 H          4.57561016   -1.05000997   -0.69043100
 H          5.48575401   -2.54045606   -1.04342401
