34
wb97x-d4 ma-def2-tzvp(-f) cpcm(dmso) E: -955.831605993831, G: -955.5953815199999
 C         -2.51270294   -0.72636801   -0.31646100
 C         -1.34880197   -1.57242596   -0.81568199
 O         -1.49287105   -2.90258408   -0.34045699
 C         -0.01160100   -0.97226602   -0.40614399
 O          0.98699099   -1.78023100   -1.01083398
 C          0.04993900    0.48240900   -0.86119902
 C         -1.18011498    1.24429703   -0.36592299
 C         -1.24948704    2.66697502   -0.90804100
 O         -0.24767099    3.50726795   -0.34387901
 O         -2.37214589    0.59377801   -0.81202698
 O          1.19555295    1.16039896   -0.35474601
 O         -2.55327010   -0.76860201    1.07901800
 H         -1.15974498    1.27991402    0.72934097
 H         -3.45999694   -1.08420503   -0.73591501
 H          0.08337600   -1.00379002    0.68699998
 H          0.05549800    0.50120002   -1.96041501
 C         -3.70404100   -0.12544100    1.62216198
 H         -0.69297999   -3.37494397   -0.60448200
 H         -1.16873205    2.64261389   -2.00267100
 H         -2.21817088    3.09708810   -0.64469600
 H          1.98543596    0.57669300   -0.41618401
 H          1.87715900   -1.41476595   -0.78292400
 H          0.57883400    3.00054002   -0.36117899
 H         -3.66621494    0.95532203    1.45871997
 H         -3.70485711   -0.33239800    2.69196010
 H         -4.61742783   -0.52768201    1.16949797
 H         -1.40350294   -1.56066895   -1.91167200
 O          3.14179993   -1.40637398    1.68006301
 O          3.29881310   -0.54000998   -0.37588701
 C          5.17872620   -0.30765799    1.06299806
 C          3.76553607   -0.80249703    0.78838003
 H          5.16100979    0.78395700    1.13197398
 H          5.83857822   -0.57317698    0.23455299
 H          5.56708384   -0.71636498    1.99575305
