34
wb97x-d4 ma-def2-tzvp(-f) cpcm(dmso) E: -955.832334382813, G: -955.59536764
 C         -2.29837704   -0.58503801   -0.20829301
 C         -1.26604104   -1.42245495   -0.95032603
 O         -1.42626905   -2.79036593   -0.60758102
 C          0.14552300   -0.93493700   -0.65894198
 O          1.01135302   -1.73404300   -1.45451701
 C          0.24894699    0.55507398   -0.98139900
 C         -0.86990499    1.32028103   -0.27253500
 C         -0.93202800    2.78613710   -0.66264999
 O         -1.17708194    2.97516608   -2.05321288
 O         -2.15292001    0.76892102   -0.59017402
 O          1.47316003    1.13008797   -0.54752398
 O         -2.13945103   -0.76898003    1.16838396
 H         -0.69683897    1.26264095    0.80846298
 H         -3.31486797   -0.86065298   -0.51276600
 H          0.36906999   -1.08414805    0.40535799
 H          0.13511699    0.67490500   -2.06670690
 C         -3.15676689   -0.12837100    1.93395901
 H         -0.66113597   -3.25039697   -0.97707599
 H         -1.71190798    3.27463603   -0.06677800
 H          0.02503300    3.25862288   -0.44030300
 H          2.18955898    0.45796001   -0.57604301
 H          1.93540096   -1.57121003   -1.14743495
 H         -2.01394200    2.54150200   -2.25926089
 H         -3.08332396    0.96016300    1.85567498
 H         -3.00887704   -0.42868099    2.97106194
 H         -4.14950418   -0.44880700    1.59767306
 H         -1.46063805   -1.28038096   -2.02126598
 O          3.32680893   -0.85689002   -0.49062899
 O          3.77973604   -2.48574400    0.96864301
 C          4.20427322   -0.21893001    1.62648904
 C          3.74048305   -1.28490102    0.64174801
 H          4.55454302   -0.66329300    2.55784392
 H          3.37464190    0.46184501    1.83493495
 H          5.00622511    0.37028301    1.17518401
