34
wb97x-d4 ma-def2-tzvp(-f) cpcm(dmso) E: -955.830659855158, G: -955.5953399599999
 C         -1.59659302   -0.62796003   -0.50601602
 C         -0.24120501   -0.85064602   -1.17889500
 O          0.14714400   -2.19821095   -0.98285401
 C          0.76471001    0.16285200   -0.64223897
 O          2.00520205    0.12557399   -1.33416998
 C          0.21559000    1.57131195   -0.81456500
 C         -1.16762602    1.69469798   -0.18427400
 C         -1.79646397    3.04601908   -0.46647799
 O         -3.02156591    3.23878694    0.23710300
 O         -2.03470111    0.69876599   -0.73286903
 O          1.08015299    2.52085805   -0.19834100
 O         -1.48561203   -0.92171299    0.85752302
 H         -1.07936502    1.55423903    0.90022200
 H         -2.36371994   -1.26050603   -0.96779698
 H          0.92333400   -0.02045700    0.42719901
 H          0.13557400    1.78208804   -1.89021206
 C         -2.74073601   -0.91661000    1.53189898
 H          1.12544405   -2.26946807   -0.96154398
 H         -1.07801294    3.83238792   -0.21830501
 H         -2.03595901    3.11618590   -1.53029501
 H          1.97700703    2.29585695   -0.47777200
 H          2.40989804   -0.76357698   -1.20084202
 H         -2.81809402    3.30526090    1.17721498
 H         -3.15533304    0.09415800    1.58946800
 H         -2.56090593   -1.29317796    2.53870702
 H         -3.45527411   -1.57079196    1.01903296
 H         -0.38633299   -0.65296102   -2.24951196
 O          2.88803005   -2.38328600   -0.90273499
 O          4.39933491   -3.48682404    0.31190801
 C          2.96684289   -1.93428695    1.44068599
 C          3.46792889   -2.66793203    0.20216601
 H          3.17811298   -0.86641002    1.33604300
 H          3.44963908   -2.30861402    2.34294105
 H          1.88355398   -2.04561305    1.52760398
