34
wb97x-d4 ma-def2-tzvp(-f) cpcm(dmso) E: -955.831889944018, G: -955.5953320899999
 C         -2.45083404   -0.62834001   -0.46228799
 C         -1.28532600   -1.58725095   -0.65157801
 O         -1.69412303   -2.90457296   -0.31528899
 C         -0.07125700   -1.15283704    0.15704000
 O          0.95641601   -2.07653594   -0.18073000
 C          0.28380799    0.29613301   -0.18090700
 C         -0.95740098    1.18360901   -0.06636300
 C         -0.72401702    2.60260391   -0.55295199
 O         -0.34701300    2.65949297   -1.92589998
 O         -2.03974199    0.66825598   -0.84855902
 O          1.24427795    0.84818602    0.70584899
 O         -2.88226390   -0.67709601    0.86625600
 H         -1.25159800    1.23096395    0.98853499
 H         -3.27643800   -0.88061899   -1.13790298
 H         -0.30369300   -1.21684897    1.22813797
 H          0.65207303    0.32405299   -1.21504295
 C         -4.06011105    0.09177800    1.09454298
 H         -0.89678401   -3.44917703   -0.33833101
 H         -1.63645899    3.18571997   -0.38214800
 H          0.08883400    3.05011606    0.01900500
 H          1.97165000    0.20045599    0.86048198
 H          1.78630698   -1.83601499    0.29258299
 H         -1.04512405    2.22834492   -2.43343496
 H         -3.86568689    1.15962994    0.95934898
 H         -4.36584377   -0.09404400    2.12393403
 H         -4.85963392   -0.21971899    0.41253999
 H         -1.01629102   -1.54036105   -1.71475804
 O          4.79209280   -1.97963297   -0.08269900
 O          3.10548592   -1.04455996    1.04545701
 C          4.87373209    0.37934700    0.33832800
 C          4.22615004   -0.99670100    0.42946801
 H          4.21014786    1.05110502   -0.21288601
 H          5.84072208    0.33170000   -0.16188700
 H          4.99794197    0.79281598    1.34214795
