34
wb97x-d4 ma-def2-tzvp(-f) cpcm(dmso) E: -955.8312435135, G: -955.5952890899999
 C         -1.51387095   -0.70774901   -0.60772997
 C         -0.13907100   -0.69567901   -1.28262198
 O          0.42957199   -1.98707604   -1.19171298
 C          0.72666401    0.40920699   -0.68071699
 O          1.93461394    0.60026699   -1.40396094
 C         -0.02880800    1.72815394   -0.73686397
 C         -1.40492404    1.61013198   -0.09279100
 C         -2.24165511    2.87351608   -0.26199499
 O         -1.76497304    3.94843507    0.53872901
 O         -2.13051891    0.56209397   -0.73559898
 O          0.69457501    2.75415802   -0.05860200
 O         -1.36301506   -1.08658099    0.73020500
 H         -1.28968704    1.39659703    0.97580802
 H         -2.18745589   -1.40251696   -1.12290394
 H          0.94789398    0.17024300    0.36685401
 H         -0.16323900    2.00334597   -1.79175997
 C         -2.60690808   -1.27458203    1.39830303
 H          1.39597595   -1.92918301   -1.01766300
 H         -2.26381493    3.15310192   -1.32328999
 H         -3.26346898    2.66141701    0.05925300
 H          1.58110404    2.77612305   -0.44124401
 H          2.53560901   -0.14073899   -1.16069305
 H         -0.81400698    4.02355814    0.37415701
 H         -3.23834991   -1.97814906    0.84342200
 H         -3.14106393   -0.32721201    1.51544094
 H         -2.38091397   -1.68619704    2.38174891
 H         -0.31333101   -0.43917799   -2.33639503
 O          4.35848188   -1.04579902    1.07070804
 O          3.08031797   -1.68264306   -0.64649498
 C          2.88674212   -2.91437507    1.38058603
 C          3.50058198   -1.78837204    0.55728501
 H          3.29654098   -2.93822694    2.38998699
 H          3.07716107   -3.86887503    0.88365000
 H          1.80324197   -2.77721691    1.42690206
