34
wb97x-d4 ma-def2-tzvp(-f) cpcm(dmso) E: -955.837078802087, G: -955.60120782
 C         -2.32773995   -0.72006899   -0.32061499
 C         -1.23465097   -1.47957003   -1.07743895
 O         -1.23650599   -2.84491396   -0.68769997
 C          0.12684301   -0.81445599   -0.88952202
 O          1.08083105   -1.45365000   -1.71401000
 C          0.00361000    0.67036200   -1.23134506
 C         -1.10520303    1.31471097   -0.39749399
 C         -1.32789898    2.77812600   -0.75710100
 O         -0.22878700    3.59074903   -0.36046600
 O         -2.34338403    0.64798898   -0.65891498
 O          1.23133194    1.36667705   -1.07278097
 O         -2.10315895   -0.93107599    1.04889596
 H         -0.85579801    1.24098396    0.66802698
 H         -3.31794095   -1.09687996   -0.60007203
 H          0.42147601   -0.90926999    0.16394199
 H         -0.27925101    0.75638902   -2.28822589
 C         -3.17977095   -0.48842800    1.87199605
 H         -1.21248698   -2.86049604    0.27836201
 H         -1.50529301    2.86008000   -1.83783603
 H         -2.21532297    3.14378595   -0.23533501
 H          1.76291502    0.97121501   -0.32538599
 H          1.95646799   -1.37022901   -1.26227903
 H          0.56708097    3.08936310   -0.60994297
 H         -3.28547192    0.59907401    1.82627106
 H         -2.94348693   -0.78863400    2.89243507
 H         -4.11877918   -0.95835400    1.55878901
 H         -1.48741901   -1.46057701   -2.14089799
 O          2.77804089    0.47062799    0.86770302
 O          3.40895295   -1.27006996   -0.38938800
 C          4.65852499   -0.81481397    1.58515096
 C          3.53167892   -0.50953901    0.60873199
 H          4.34722281   -1.64846599    2.22187710
 H          4.87844992    0.04433100    2.21875691
 H          5.55492496   -1.12497306    1.04581296
