34
wb97x-d4 ma-def2-tzvp(-f) cpcm(dmso) E: -955.831368004103, G: -955.59517667
 C         -1.38141298   -0.40495199   -0.76753402
 C          0.13572000   -0.26800001   -0.92291701
 O          0.71702302   -1.55690098   -0.91137302
 C          0.68233597    0.67769802    0.14672700
 O          2.05407095    0.99571401   -0.04850000
 C         -0.07580600    1.99688900    0.09974000
 C         -1.57477498    1.76155806    0.20631699
 C         -2.37932611    3.03166509    0.01959000
 O         -3.77571988    2.78921008    0.16586600
 O         -1.99220598    0.87217599   -0.83413702
 O          0.32295099    2.84302211    1.17228305
 O         -1.66582894   -1.05955303    0.43369099
 H         -1.80723405    1.32400095    1.18368006
 H         -1.80467296   -0.96234000   -1.61148906
 H          0.54123098    0.22645301    1.13691700
 H          0.14037800    2.48452592   -0.86124301
 C         -3.04648209   -1.38113797    0.57677901
 H          1.54923797   -1.56188905   -0.38185200
 H         -2.10003996    3.75845695    0.78279799
 H         -2.16140294    3.45655608   -0.96843803
 H          1.28886104    2.82942605    1.18421996
 H          2.57963204    0.20885700    0.22383700
 H         -4.00722504    2.08564711   -0.45304900
 H         -3.39991999   -1.94958496   -0.29122600
 H         -3.65402699   -0.47784400    0.68678701
 H         -3.13778901   -1.99182904    1.47480202
 H          0.30285701    0.20263600   -1.90140796
 O          5.17820311   -1.61700404    0.67875302
 O          2.95589209   -1.41728401    0.58410800
 C          3.90673804   -3.45214891   -0.19497401
 C          4.04727983   -2.05588889    0.39796299
 H          3.35977888   -4.08598423    0.50826502
 H          4.88043308   -3.89717007   -0.39851299
 H          3.32124400   -3.40498209   -1.11647201
