34
wb97x-d4 ma-def2-tzvp(-f) cpcm(dmso) E: -955.830557277919, G: -955.5951659
 C         -1.75631595   -0.67034101   -0.40485200
 C         -0.45381999   -1.06129599   -1.10695398
 O         -0.14567900   -2.41015506   -0.80156898
 C          0.64667201   -0.07653100   -0.72364599
 O          1.84587705   -0.28622901   -1.45334005
 C          0.19058700    1.34500897   -1.01988494
 C         -1.14505994    1.63395905   -0.34249499
 C         -1.69362605    2.99618506   -0.72401202
 O         -2.87038708    3.34017897    0.00526700
 O         -2.10590100    0.65631503   -0.75272501
 O          1.15526104    2.28138900   -0.55144101
 O         -1.60009801   -0.83266002    0.97696698
 H         -1.00906205    1.59053099    0.74525797
 H         -2.58866310   -1.28626502   -0.76424098
 H          0.84218198   -0.16118400    0.35270599
 H          0.06387800    1.44700694   -2.10695505
 C         -2.80895495   -0.63096100    1.70379305
 H          0.81997901   -2.52475095   -0.69998997
 H         -0.91206199    3.74710989   -0.57830399
 H         -1.97498405    2.98801589   -1.77977502
 H          2.01706100    1.94453597   -0.83082998
 H          2.27082396   -1.10803902   -1.09559202
 H         -2.62264204    3.46711993    0.92879999
 H         -3.60762191   -1.26831901    1.30765200
 H         -3.12895608    0.41398200    1.66007304
 H         -2.60528398   -0.90443701    2.73868203
 H         -0.63815999   -0.95994002   -2.18445897
 O          3.17383003   -3.74832296    1.40063906
 O          2.59627891   -2.60871291   -0.42973301
 C          3.64399910   -1.40046000    1.34358704
 C          3.10288906   -2.69320798    0.74275601
 H          4.32544994   -0.91880298    0.63885099
 H          4.15818119   -1.58985996    2.28514409
 H          2.81432390   -0.71086103    1.52061999
