34
wb97x-d4 ma-def2-tzvp(-f) cpcm(dmso) E: -955.831036986339, G: -955.59510211
 C         -1.46072102   -0.74158102   -0.36166900
 C         -0.23471300   -0.89863998   -1.26459897
 O          0.32744500   -2.18640208   -1.10337806
 C          0.73601300    0.24544200   -0.98831201
 O          1.85199404    0.24134199   -1.86781502
 C          0.02030500    1.57485402   -1.17401397
 C         -1.22870398    1.63304603   -0.30056599
 C         -2.03827000    2.89019108   -0.55367798
 O         -3.11972690    3.04372406    0.36319500
 O         -2.07199407    0.51503402   -0.59435499
 O          0.87833798    2.65166712   -0.81150901
 O         -1.06890798   -0.90009099    0.97241002
 H         -0.92474103    1.60267496    0.75314403
 H         -2.22899103   -1.47950101   -0.62028801
 H          1.08449495    0.18350500    0.04972900
 H         -0.27522701    1.67018402   -2.22828794
 C         -2.16859603   -0.93391401    1.87665105
 H          1.28992796   -2.11952209   -0.90547001
 H         -1.37161899    3.75634098   -0.51466900
 H         -2.48296309    2.83834791   -1.55040097
 H          1.73577702    2.45937896   -1.21407104
 H          2.47853398   -0.42985600   -1.51355398
 H         -2.74812603    3.22794104    1.23383701
 H         -1.76163900   -1.16623104    2.86064100
 H         -2.88381791   -1.71074998    1.58281600
 H         -2.68096495    0.03184600    1.91314304
 H         -0.59745902   -0.79599601   -2.29552507
 O          2.97036910   -1.83456302   -0.60975897
 O          4.18614578   -0.78830498    0.94548702
 C          2.73043108   -2.55798197    1.64661598
 C          3.35443306   -1.64738202    0.59689301
 H          1.64378297   -2.44232297    1.63317096
 H          3.10899997   -2.33238006    2.64323497
 H          2.95019197   -3.60009503    1.40094995
