34
wb97x-d4 ma-def2-tzvp(-f) cpcm(dmso) E: -955.83105043883, G: -955.59506648
 C         -1.42378902   -0.66611898   -0.66682303
 C         -0.07470300   -0.54512399   -1.37953198
 O          0.52702600   -1.82198596   -1.48636401
 C          0.79155099    0.48303699   -0.65784001
 O          2.00554204    0.74864900   -1.34917295
 C          0.03145700    1.79497802   -0.55780703
 C         -1.31237400    1.57582200    0.12556501
 C         -2.15656495    2.83351493    0.23027700
 O         -2.38730788    3.48042703   -1.01839995
 O         -2.05825901    0.60007101   -0.60845101
 O          0.76886803    2.75018907    0.19708000
 O         -1.22041202   -1.21256995    0.60471100
 H         -1.13768899    1.21553504    1.14657903
 H         -2.10997891   -1.29736197   -1.24369705
 H          1.01239896    0.12673700    0.35595399
 H         -0.14066701    2.17246604   -1.57417798
 C         -2.43569899   -1.54574001    1.26809394
 H          1.47470295   -1.76301301   -1.23143804
 H         -3.13727307    2.55816102    0.62458903
 H         -1.67966700    3.51775789    0.93796498
 H          1.67736006    2.71130204   -0.12962499
 H          2.61695290    0.00764000   -1.13416100
 H         -1.60354602    3.99304390   -1.24474502
 H         -2.16290307   -2.05895996    2.19010305
 H         -3.04308009   -2.21123099    0.64380199
 H         -3.01487589   -0.64899099    1.50764000
 H         -0.28849199   -0.15883000   -2.38499594
 O          3.11336398   -1.59090900   -0.65329897
 O          4.00239277   -0.91247499    1.28040600
 C          2.64282203   -2.88649511    1.28703403
 C          3.31367993   -1.70087504    0.60649300
 H          2.97357297   -3.81386900    0.81262100
 H          1.56065500   -2.81735802    1.15015900
 H          2.87493896   -2.91742206    2.35145807
