34
wb97x-d4 ma-def2-tzvp(-f) cpcm(dmso) E: -955.831411066429, G: -955.5950134
 C         -1.39320505   -0.37954599   -0.75083500
 C          0.12968700   -0.29586899   -0.88939899
 O          0.66386098   -1.60371494   -0.84175700
 C          0.69800901    0.65191400    0.16677600
 O          2.07908797    0.92460799   -0.02770700
 C         -0.01973800    1.99259400    0.08909100
 C         -1.52595997    1.80297995    0.18731099
 C         -2.29103994    3.09482288   -0.01966700
 O         -3.69439292    2.89539194    0.12193300
 O         -1.96075594    0.91463900   -0.84545100
 O          0.39787799    2.84780407    1.14638698
 O         -1.71390402   -1.00585902    0.45696801
 H         -1.77833295    1.38451099    1.16802895
 H         -1.82274199   -0.93839699   -1.59102499
 H          0.53743702    0.22401300    1.16439700
 H          0.21652099    2.45390511   -0.88019699
 C         -3.10757589   -1.27014697    0.58918500
 H          1.50549304   -1.61879301   -0.32995799
 H         -1.99321604    3.82347894    0.73448098
 H         -2.05536389    3.49836493   -1.01267803
 H          1.36292398    2.80499792    1.16413999
 H          2.58277392    0.12825300    0.25642899
 H         -3.94403410    2.19672108   -0.49558499
 H         -3.67970490   -0.34238899    0.68378103
 H         -3.23378396   -1.86724603    1.49222803
 H         -3.47512507   -1.83312702   -0.27675101
 H          0.32485300    0.14915401   -1.87482095
 O          2.93052506   -1.50875401    0.62251198
 O          5.15269899   -1.73455596    0.62594497
 C          3.82319403   -3.55154490   -0.20030700
 C          4.00574493   -2.15940309    0.39179301
 H          4.78229094   -4.02131605   -0.41722000
 H          3.22905898   -3.48547292   -1.11527598
 H          3.26683307   -4.17201996    0.50725102
