34
wb97x-d4 ma-def2-tzvp(-f) cpcm(dmso) E: -955.830697942602, G: -955.5949823899999
 C         -1.50227499   -0.59020501   -0.65235800
 C         -0.07957400   -0.52470601   -1.21554399
 O          0.46886000   -1.82913005   -1.20611298
 C          0.73917198    0.50488198   -0.43833601
 O          2.00187612    0.76708698   -1.03529406
 C         -0.00630400    1.83194900   -0.42708999
 C         -1.42102301    1.65875196    0.10699200
 C         -2.23578000    2.94153905    0.09373700
 O         -2.31159496    3.56307697   -1.18686295
 O         -2.10556793    0.69002903   -0.69005901
 O          0.66500700    2.78621793    0.38785499
 O         -1.45866597   -1.11208701    0.64558798
 H         -1.37034202    1.31510305    1.14720702
 H         -2.13465691   -1.21984696   -1.28956699
 H          0.87435001    0.15956500    0.59478098
 H         -0.05828800    2.19427204   -1.46198905
 C         -2.75287294   -1.37701702    1.17807198
 H          1.43997598   -1.79740596   -1.05200803
 H         -3.26040292    2.70046806    0.38549900
 H         -1.81981397    3.63066292    0.83413899
 H          1.59688902    2.75402093    0.13541800
 H          2.56141710   -0.03807400   -0.93764699
 H         -1.48891401    4.04086304   -1.33991802
 H         -3.31168699   -0.45097300    1.34219801
 H         -2.60713196   -1.88628101    2.13057804
 H         -3.32088709   -2.02492499    0.50037998
 H         -0.17132799   -0.16374400   -2.24914694
 O          3.12371111   -1.62099504   -0.67842197
 O          4.51553297   -1.28330195    1.03478396
 C          3.06119609   -3.18704796    1.11309195
 C          3.62074089   -1.93022001    0.45892400
 H          3.29199004   -4.05119801    0.48427701
 H          1.97296405   -3.11222601    1.18062901
 H          3.48342609   -3.33910203    2.10620499
