34
wb97x-d4 ma-def2-tzvp(-f) cpcm(dmso) E: -955.836481343198, G: -955.6011575599999
 C         -1.76587105   -0.72643602   -0.41605100
 C         -0.49481601   -0.89840299   -1.25448799
 O          0.04237900   -2.19558096   -1.13252795
 C          0.50092900    0.20142800   -0.89113098
 O          1.66137803    0.16549000   -1.70085204
 C         -0.17179400    1.55176604   -1.07163894
 C         -1.45209205    1.63219595   -0.24645200
 C         -2.23235011    2.91888309   -0.48635700
 O         -1.58043098    4.05581808    0.07046800
 O         -2.32228494    0.56421202   -0.62191600
 O          0.69524598    2.60689902   -0.65643001
 O         -1.45080602   -0.95634902    0.92744201
 H         -1.19976401    1.56056404    0.81806201
 H         -2.54598689   -1.42178500   -0.74651700
 H          0.78554302    0.09496600    0.16205400
 H         -0.42920199    1.68079197   -2.13216090
 C         -2.59622788   -0.99377400    1.77314603
 H          0.70723897   -2.21320701   -0.39792001
 H         -2.39653897    3.04956102   -1.56375694
 H         -3.20532990    2.83601308    0.00223400
 H          1.53792799    2.46508288   -1.10773695
 H          2.33106208   -0.38270199   -1.21350598
 H         -0.65815902    4.02403402   -0.22217800
 H         -3.08200598   -0.01505600    1.82314897
 H         -2.24819303   -1.27705300    2.76630592
 H         -3.31648993   -1.73649800    1.41140401
 H         -0.79209000   -0.76208103   -2.30037594
 O          1.89803004   -2.41518807    0.78899801
 O          3.44263411   -1.17820001   -0.26138699
 C          4.12444019   -2.46029401    1.63202298
 C          3.07080197   -1.97322202    0.64613801
 H          4.44563723   -3.46113706    1.32798302
 H          3.70267391   -2.53701591    2.63540411
 H          4.99451685   -1.80372798    1.63856995
