34
wb97x-d4 ma-def2-tzvp(-f) cpcm(dmso) E: -955.830691873139, G: -955.59490836
 C         -1.75543499   -0.67027003   -0.38632199
 C         -0.50103998   -1.06007600   -1.17228103
 O         -0.19232599   -2.42071009   -0.93149197
 C          0.62873900   -0.09562900   -0.82259703
 O          1.79723597   -0.31260699   -1.60165906
 C          0.17420501    1.33402598   -1.07880199
 C         -1.11769497    1.62734401   -0.32176101
 C         -1.67097795    3.00102091   -0.65305698
 O         -2.79562593    3.35086489    0.15166999
 O         -2.11342406    0.66658199   -0.68340200
 O          1.17221904    2.25529695   -0.65315300
 O         -1.51735497   -0.86483002    0.97982299
 H         -0.91724002    1.56950998    0.75542003
 H         -2.61373210   -1.27137303   -0.70775402
 H          0.86871701   -0.19616599    0.24295400
 H         -0.01182200    1.45133305   -2.15585804
 C         -2.68182898   -0.68376100    1.78052795
 H          0.76711601   -2.52717209   -0.75674999
 H         -0.87264800    3.74063206   -0.54704601
 H         -2.01642203    3.00848007   -1.68969405
 H          2.01456404    1.91082394   -0.97888398
 H          2.25029993   -1.09985900   -1.21440601
 H         -2.48674798    3.47865295    1.05647600
 H         -3.50609303   -1.30118096    1.40574801
 H         -2.99576497    0.36394301    1.79409206
 H         -2.42344189   -0.99720198    2.79163408
 H         -0.74533403   -0.92590898   -2.23400497
 O          2.41659904   -3.39148307    1.69227505
 O          2.49013305   -2.57438803   -0.38488001
 C          3.72063494   -1.41873801    1.29765904
 C          2.80689692   -2.55613089    0.85522997
 H          3.21342397   -0.46346700    1.13733399
 H          4.62439013   -1.41552401    0.68377900
 H          3.98978090   -1.51203597    2.34918189
