34
wb97x-d4 ma-def2-tzvp(-f) cpcm(dmso) E: -955.831006456766, G: -955.59486294
 C         -1.59675896   -0.67923898   -0.62121499
 C         -0.19257200   -0.62940902   -1.22964299
 O          0.39491299   -1.91425097   -1.13267004
 C          0.62621099    0.47329900   -0.56226999
 O          1.86853802    0.68651199   -1.21162903
 C         -0.14582101    1.78068805   -0.64072502
 C         -1.54686499    1.63178694   -0.06023300
 C         -2.39349103    2.88651490   -0.24309000
 O         -1.96827698    3.94930601    0.60196197
 O         -2.22753310    0.58400297   -0.75190198
 O          0.53128999    2.81109595    0.07751500
 O         -1.50286603   -1.08424401    0.71398598
 H         -1.47620797    1.40052295    1.00858295
 H         -2.23505807   -1.37171602   -1.18238294
 H          0.79023200    0.21778800    0.49199900
 H         -0.23747601    2.06508398   -1.69778705
 C         -2.77438092   -1.29835796    1.32008803
 H          1.35955703   -1.83385301   -0.99431902
 H         -2.37052894    3.18910789   -1.29799104
 H         -3.42607903    2.65479994    0.02597900
 H          1.43873405    2.83523703   -0.25262499
 H          2.46300507   -0.06519400   -0.95671600
 H         -1.01195097    4.03986502    0.48172700
 H         -3.32396007   -0.35918301    1.43068504
 H         -2.58905101   -1.72712004    2.30465508
 H         -3.37159300   -1.99706602    0.72296602
 H         -0.31988299   -0.35653600   -2.28576303
 O          3.10505605   -1.58118296   -0.60066599
 O          3.52333403   -0.81795400    1.45957303
 C          3.74224401   -3.16997600    1.04910505
 C          3.43974900   -1.73866999    0.62444001
 H          2.84874797   -3.78202605    0.89965600
 H          4.04748678   -3.21926594    2.09419608
 H          4.53125620   -3.58036804    0.41451001
