34
wb97x-d4 ma-def2-tzvp(-f) cpcm(dmso) E: -955.831890675429, G: -955.59483073
 C         -2.49662304   -0.73475802   -0.47059599
 C         -1.33965600   -1.72333205   -0.47709900
 O         -1.78571701   -2.97278404    0.03165800
 C         -0.14198700   -1.19416595    0.30086800
 O          0.89232200   -2.15182304    0.10753200
 C          0.22659101    0.20243400   -0.20034800
 C         -1.00984502    1.10275996   -0.23507801
 C         -0.73378497    2.45073295   -0.89046901
 O          0.11539600    3.27195501   -0.09539100
 O         -2.05022907    0.49826199   -1.00494301
 O          1.16772604    0.85395998    0.64565402
 O         -2.99088907   -0.60137898    0.82942098
 H         -1.35383904    1.26956403    0.79181498
 H         -3.29221296   -1.06429696   -1.14873004
 H         -0.40147400   -1.12303305    1.36526501
 H          0.62752903    0.11114500   -1.22010601
 C         -4.16062689    0.21179099    0.89559501
 H         -1.01025295   -3.54711294    0.06545200
 H         -0.30039400    2.28664899   -1.88580203
 H         -1.67989397    2.98281908   -1.01175499
 H          1.96744502    0.28011799    0.77125198
 H          1.74594295   -1.80564904    0.45881599
 H          0.81898600    2.69102001    0.23718201
 H         -3.93312693    1.25094295    0.64153701
 H         -4.52391195    0.15945800    1.92147100
 H         -4.92983913   -0.16672100    0.21295100
 H         -1.03606105   -1.83630800   -1.52550006
 O          3.10759306   -0.89532000    0.95932800
 O          4.69529104   -1.89476502   -0.25278500
 C          4.80129719    0.48458600    0.01756800
 C          4.17002201   -0.88256001    0.24239799
 H          4.06629419    1.15831995   -0.43029201
 H          5.67655611    0.41575000   -0.62783599
 H          5.09137011    0.91174001    0.98096699
