34
wb97x-d4 ma-def2-tzvp(-f) cpcm(dmso) E: -955.830786979432, G: -955.59482565
 C         -2.37286997   -0.66344398   -0.19392700
 C         -1.32466197   -1.60668600   -0.76383501
 O         -1.49965799   -2.90247202   -0.21027200
 C          0.08138900   -1.08066297   -0.51925802
 O          0.95508200   -1.98856199   -1.17726898
 C          0.20906000    0.35231900   -1.04069495
 C         -0.93849999    1.21174097   -0.50198698
 C         -0.94952703    2.58941197   -1.13798404
 O         -1.89762402    3.46925497   -0.53558302
 O         -2.20600605    0.61030298   -0.78266102
 O          1.41820896    0.97110999   -0.62755698
 O         -2.25957298   -0.63054597    1.19946599
 H         -0.81340897    1.31432605    0.58297598
 H         -3.38109994   -0.98105103   -0.48447299
 H          0.28314400   -1.07665896    0.55992103
 H          0.14720900    0.32177401   -2.13889909
 C         -3.30159998    0.11470500    1.82410002
 H         -0.76450098   -3.43804693   -0.53475398
 H          0.05758400    3.01179194   -1.08948398
 H         -1.23957098    2.49823403   -2.18767095
 H          2.15581799    0.31774700   -0.64796102
 H          1.88622606   -1.74215496   -0.96636099
 H         -1.59328198    3.66787195    0.35748100
 H         -4.28236914   -0.24226201    1.48968697
 H         -3.21156693    1.18202603    1.60211098
 H         -3.20266199   -0.04325700    2.89786792
 H         -1.49281502   -1.63863897   -1.84793103
 O          4.28279400   -2.35292411    0.89602202
 O          3.31479406   -0.94072402   -0.53696400
 C          4.41244698   -0.00476700    1.35561705
 C          3.97718906   -1.20471704    0.52517599
 H          5.10992002    0.60144901    0.77135497
 H          4.89477015   -0.31717300    2.28158998
 H          3.54566002    0.62068498    1.58215702
