34
wb97x-d4 ma-def2-tzvp(-f) cpcm(dmso) E: -955.830517991686, G: -955.59479397
 C         -1.43833196   -0.42475799   -0.91685402
 C          0.09031900   -0.34469900   -0.89177901
 O          0.61380202   -1.65917206   -0.87499499
 C          0.54762000    0.52412701    0.27927199
 O          1.94120204    0.79915297    0.23943600
 C         -0.16422600    1.86559796    0.21460900
 C         -1.67637801    1.68934202    0.14602099
 C         -2.41550708    3.00743008   -0.05224000
 O         -2.39169788    3.81960893    1.11649501
 O         -1.99713397    0.87670398   -0.98430002
 O          0.14325701    2.65958810    1.36015201
 O         -1.87723303   -1.12494004    0.21110401
 H         -2.03161001    1.21541297    1.06793797
 H         -1.78111303   -0.92567998   -1.82947898
 H          0.28844100    0.02847100    1.22322702
 H          0.16403300    2.38641095   -0.69496399
 C         -3.27331710   -1.40958595    0.18275400
 H          1.43321896   -1.69950294   -0.33273801
 H         -1.98438001    3.53918791   -0.91010600
 H         -3.46298599    2.79214692   -0.27206600
 H          1.10573304    2.71845794    1.41405499
 H          2.41136599   -0.02423800    0.51565498
 H         -1.46953702    3.86880708    1.40725505
 H         -3.86699009   -0.49656299    0.28374001
 H         -3.47897291   -2.07081795    1.02414000
 H         -3.54432511   -1.91274798   -0.75230402
 H          0.38944101    0.16297001   -1.81878901
 O          5.02832699   -1.44580495    0.51689303
 O          2.81445503   -1.65610504    0.72240299
 C          3.98843098   -3.42105889   -0.35939300
 C          3.96354103   -2.06789899    0.34164700
 H          4.98940086   -3.66687799   -0.71259499
 H          3.29163599   -3.41064596   -1.20123303
 H          3.64951491   -4.19231701    0.33703801
