34
wb97x-d4 ma-def2-tzvp(-f) cpcm(dmso) E: -955.831466818143, G: -955.59467753
 C         -2.48896003   -0.78772300   -0.47272900
 C         -1.22804499   -1.64225197   -0.50559300
 O         -1.53839195   -2.95169091   -0.05223300
 C         -0.11005500   -1.00814497    0.30999100
 O          1.03598595   -1.82933402    0.11438800
 C          0.10847300    0.43015900   -0.15223500
 C         -1.21660399    1.19349098   -0.15639099
 C         -1.08482301    2.58682489   -0.75960600
 O         -0.32335100    3.45889997    0.06737100
 O         -2.18377399    0.50831503   -0.95291501
 O          0.98931301    1.14061606    0.70783001
 O         -3.00032902   -0.76688302    0.82751298
 H         -1.57524395    1.28481197    0.87506199
 H         -3.23910904   -1.18005800   -1.16915298
 H         -0.39205700   -0.99646902    1.37048900
 H          0.50809401    0.40875700   -1.17618001
 C         -4.26287079   -0.11105100    0.91558200
 H         -0.71839702   -3.45960212   -0.08629100
 H         -0.63998401    2.50601411   -1.76020002
 H         -2.08234692    3.02039003   -0.86128700
 H          1.84767795    0.64510602    0.78305697
 H          1.83724797   -1.35926402    0.42271101
 H          0.44126701    2.94406009    0.37242600
 H         -4.61888504   -0.24389200    1.93686700
 H         -4.97732019   -0.56028003    0.21625000
 H         -4.16837692    0.95673800    0.69853300
 H         -0.90309501   -1.67662501   -1.55303097
 O          3.75801110    0.51142001   -1.16574097
 O          3.22375298   -0.30334499    0.84747100
 C          5.47136497   -0.58193201    0.08449800
 C          4.04367495   -0.08638000   -0.11090700
 H          5.53180885   -1.32039797    0.88394600
 H          6.10154200    0.27282801    0.34750801
 H          5.85380316   -1.00310504   -0.84700102
