34
wb97x-d4 ma-def2-tzvp(-f) cpcm(dmso) E: -955.830501889961, G: -955.59456165
 C         -2.47604489   -0.63899797   -0.42397401
 C         -1.33827102   -1.62054706   -0.65904301
 O         -1.72131705   -2.91095090   -0.20618300
 C         -0.05481300   -1.15460598    0.01039800
 O          0.93807399   -2.09829211   -0.37029600
 C          0.27878100    0.27407801   -0.42415100
 C         -0.94594902    1.17520905   -0.23997700
 C         -0.71377099    2.55983210   -0.81460202
 O         -1.76954699    3.46962309   -0.50667101
 O         -2.08811903    0.63068199   -0.90797198
 O          1.32768905    0.84863198    0.34041601
 O         -2.80090499   -0.61852700    0.93610501
 H         -1.15482605    1.26021099    0.83341002
 H         -3.35539508   -0.91337299   -1.01826096
 H         -0.18990400   -1.16485202    1.10000598
 H          0.54965401    0.25126499   -1.49026704
 C         -3.95619106    0.16718200    1.21753001
 H         -0.93971699   -3.47119308   -0.29523599
 H          0.24403700    2.94032693   -0.45052400
 H         -0.67323703    2.49505091   -1.90478003
 H          2.01224804    0.17045000    0.55095100
 H          1.78177798   -1.88031805    0.09174200
 H         -1.74792802    3.63944507    0.44223100
 H         -4.79871607   -0.15167201    0.59305203
 H         -3.76195598    1.22989202    1.04588497
 H         -4.19975519    0.00686800    2.26759911
 H         -1.16680205   -1.64238298   -1.74286306
 O          4.81569195   -2.21645904   -0.04644600
 O          3.09224105   -1.10880804    0.84145498
 C          5.00969315    0.15819199    0.23460600
 C          4.26750708   -1.16754603    0.33910301
 H          5.13874912    0.58023798    1.23477995
 H          4.41175795    0.86763602   -0.34318501
 H          5.98526192    0.03371100   -0.23483400
