34
wb97x-d4 ma-def2-tzvp(-f) cpcm(dmso) E: -955.830357797072, G: -955.5945194
 C         -1.39074504   -0.47605601   -0.80916101
 C          0.12330600   -0.51274502   -0.58518302
 O          0.51263201   -1.86205995   -0.43045300
 C          0.49712801    0.38729501    0.59345102
 O          1.89911902    0.59375799    0.71061599
 C         -0.10125600    1.76966298    0.38629600
 C         -1.59721804    1.71006894    0.10557500
 C         -2.17606306    3.06694603   -0.27797499
 O         -2.20548701    3.97444510    0.81863999
 O         -1.82553399    0.85718697   -1.01628900
 O          0.10134300    2.58769488    1.54031801
 O         -2.03324389   -1.07015395    0.28134501
 H         -2.12270689    1.32839406    0.98828000
 H         -1.65157497   -1.00177300   -1.73495495
 H          0.09726700   -0.04354200    1.52011299
 H          0.39397001    2.22792292   -0.48012999
 C         -3.43296099   -1.24199700    0.07907800
 H          1.38747203   -1.92667794    0.02694500
 H         -1.59858096    3.48206496   -1.11397004
 H         -3.20744896    2.92778492   -0.60858297
 H          1.05190301    2.61656404    1.70616496
 H          2.33951092   -0.26652300    0.88691598
 H         -1.33575904    3.93125701    1.24262595
 H         -3.95048094   -0.27857500    0.05254800
 H         -3.80353308   -1.83013797    0.91842198
 H         -3.62257290   -1.77901697   -0.85732001
 H          0.57940698   -0.08419000   -1.48875999
 O          2.83216691   -1.91123104    0.90646100
 O          5.06009293   -2.05239391    0.87984598
 C          3.84130502   -3.06984210   -0.91435599
 C          3.94088697   -2.28857088    0.38945699
 H          4.81888008   -3.42477989   -1.23950899
 H          3.41550207   -2.42320204   -1.68660402
 H          3.16327500   -3.91758108   -0.78984803
