34
wb97x-d4 ma-def2-tzvp(-f) cpcm(dmso) E: -955.829973189563, G: -955.59393552
 C         -2.14796495   -0.75979501   -0.17643000
 C         -1.43044400   -1.84401703   -0.98430097
 O         -1.68834901   -3.12755895   -0.43530399
 C          0.05475300   -1.53030205   -1.07448494
 O          0.66831797   -2.46953106   -1.95025504
 C          0.26074100   -0.10710800   -1.58574605
 C         -0.48553199    0.87420303   -0.68362802
 C         -0.35843900    2.33287311   -1.13796496
 O          0.08146000    3.19868207   -0.10029400
 O         -1.87990499    0.52684402   -0.68504798
 O          1.64793599    0.16435499   -1.69392204
 O         -1.74505997   -0.90638298    1.16092396
 H         -0.09964100    0.79387099    0.33679700
 H         -3.23433709   -0.88047600   -0.25518399
 H          0.50099701   -1.61037505   -0.07418300
 H         -0.16803201   -0.04053800   -2.59445310
 C         -2.50056505   -0.10150000    2.06361103
 H         -1.50438297   -3.07069612    0.51178801
 H          0.31917599    2.39353704   -1.99717295
 H         -1.34207404    2.68143201   -1.45962703
 H          1.96006596    0.71128899   -0.92940003
 H          1.57184005   -2.15593195   -2.08787704
 H          0.95776302    2.85088611    0.17803700
 H         -2.17625499   -0.36325601    3.07042289
 H         -3.57098603   -0.30946600    1.95561898
 H         -2.31790709    0.96174800    1.88580406
 H         -1.85072196   -1.84654200   -1.99328196
 O          2.34396911    1.76989305    0.34711701
 O          2.57961702    2.01347399    2.55320096
 C          3.14012003   -0.10424600    1.58102000
 C          2.65613103    1.33834398    1.50885904
 H          2.33625007   -0.76853698    1.25363398
 H          3.44054890   -0.36991701    2.59425497
 H          3.98091197   -0.24525800    0.89747000
