34
wb97x-d4 ma-def2-tzvp(-f) cpcm(dmso) E: -955.830836311956, G: -955.59373136
 C         -1.82359898   -0.68273598   -0.48995301
 C         -0.40273601   -0.94915903   -0.99554098
 O         -0.06970200   -2.28498101   -0.67187297
 C          0.56703299    0.08988200   -0.43123099
 O          1.84163702    0.04826800   -1.05552697
 C          0.01952800    1.48529899   -0.69347101
 C         -1.40981603    1.63633096   -0.19066900
 C         -2.02762294    2.97890496   -0.56476098
 O         -1.45780206    4.05945015    0.16464899
 O         -2.22007704    0.63871801   -0.81086898
 O          0.82481301    2.47398996   -0.05139500
 O         -1.87881601   -0.92390102    0.88630903
 H         -1.43051803    1.52354002    0.89915299
 H         -2.53865004   -1.32699394   -1.01518202
 H          0.66678602   -0.05812900    0.65206802
 H          0.02229400    1.65406001   -1.77873695
 C         -3.20389509   -0.85886598    1.40570498
 H          0.90443802   -2.40841699   -0.66593802
 H         -1.92345798    3.13710904   -1.64613295
 H         -3.09218693    2.95216703   -0.32233700
 H          1.72839403    2.35677695   -0.37029400
 H          2.26365089   -0.82543898   -0.86515099
 H         -0.49639800    3.96460795    0.10090100
 H         -3.15485406   -1.18581700    2.44423103
 H         -3.86926508   -1.52430403    0.84337002
 H         -3.59582210    0.16160899    1.36326802
 H         -0.43204600   -0.81583101   -2.08601904
 O          2.64507198   -2.43212891   -0.58125699
 O          3.05388308   -3.88387895    1.06484604
 C          4.15214920   -1.75359797    1.13206196
 C          3.21847510   -2.78335595    0.50799298
 H          4.89159822   -1.43492496    0.39359799
 H          4.65640783   -2.15595388    2.01024699
 H          3.57109904   -0.87229598    1.41793704
