34
wb97x-d4 ma-def2-tzvp(-f) cpcm(dmso) E: -955.830058826318, G: -955.59353798
 C         -2.15685296   -0.57755202   -0.00102200
 C         -1.72889900   -1.83094501   -0.77110600
 O         -2.11635590   -3.00283504   -0.06859600
 C         -0.23793700   -1.78481197   -1.07210398
 O          0.08972800   -2.87764192   -1.92466402
 C          0.11307400   -0.45848900   -1.74039495
 C         -0.32811600    0.69476497   -0.84031999
 C         -0.00133700    2.07824707   -1.41156995
 O          0.93490702    2.79713798   -0.61686802
 O         -1.75073302    0.60393000   -0.65659201
 O          1.49081004   -0.41848001   -2.07007408
 O         -1.61769700   -0.68613601    1.29082704
 H          0.15726800    0.60316598    0.13595700
 H         -3.24925900   -0.51561898    0.05202000
 H          0.32760701   -1.86476099   -0.13394900
 H         -0.44089401   -0.38968500   -2.68452311
 C         -2.11100006    0.29965699    2.19558692
 H         -1.78288400   -2.91519189    0.83437902
 H          0.36683500    1.97875297   -2.43904996
 H         -0.92031997    2.66727304   -1.43542898
 H          2.01008105   -0.07238800   -1.29964697
 H          0.99684501   -2.72411609   -2.22012210
 H          1.69779503    2.20232892   -0.44688901
 H         -1.75645494    1.29661703    1.91992104
 H         -1.73289895    0.03953700    3.18367696
 H         -3.20649910    0.29429901    2.20754194
 H         -2.27475500   -1.84536099   -1.71781099
 O          2.89536691   -0.87523103    1.27281106
 O          2.81462789    0.85133702   -0.14212400
 C          2.70744491    1.33185303    2.18688703
 C          2.82418799    0.34539300    1.03298604
 H          3.37892199    2.17872596    2.03184199
 H          2.92207694    0.85391998    3.14237094
 H          1.68531895    1.72230399    2.20604706
