34
wb97x-d4 ma-def2-tzvp(-f) cpcm(dmso) E: -955.8298536922, G: -955.59293581
 C         -1.43057501   -0.49174100   -0.77362603
 C          0.05850000   -0.56025702   -0.42596200
 O          0.39565799   -1.92399395   -0.24738599
 C          0.35512301    0.30731300    0.79801500
 O          1.74227095    0.47103801    1.05031204
 C         -0.20518500    1.70394802    0.56780899
 C         -1.68166399    1.66049600    0.19816799
 C         -2.24042511    3.03437901   -0.15474600
 O         -2.37890291    3.86781502    0.99061298
 O         -1.83430505    0.85162401   -0.96842402
 O         -0.06035400    2.51107907    1.73710001
 O         -2.16142702   -1.11906695    0.24049500
 H         -2.25879788    1.24257004    1.03055000
 H         -1.61830103   -0.98583603   -1.73389494
 H         -0.14021701   -0.13350300    1.67311502
 H          0.34379801    2.16030192   -0.26645300
 C         -3.54566002   -1.25043702   -0.06931700
 H          1.34116197   -1.98244798    0.00276800
 H         -1.59665096    3.50574994   -0.90853798
 H         -3.23637104    2.90695906   -0.58418900
 H          0.88240302    2.55791712    1.93869400
 H          2.24518204   -0.35367599    0.83190602
 H         -1.53247094    3.83602595    1.46016300
 H         -3.98741794   -1.87229300    0.70907497
 H         -3.67730403   -1.73489702   -1.04365802
 H         -4.04343700   -0.27643800   -0.08119500
 H          0.60279202   -0.13896599   -1.28186202
 O          4.18874121   -0.75505900   -1.12083101
 O          3.02022099   -1.81405604    0.46484199
 C          4.53392220   -3.10941792   -0.83116502
 C          3.87711096   -1.77978897   -0.48538101
 H          4.97743797   -3.54326892    0.06810200
 H          5.29755306   -2.98821807   -1.59903896
 H          3.76759100   -3.80385303   -1.18605804
