34
wb97x-d4 ma-def2-tzvp(-f) cpcm(dmso) E: -955.836163530553, G: -955.60107424
 C         -1.72210896   -0.68950599   -0.29907399
 C         -0.50683302   -0.96699202   -1.18900895
 O          0.01397200   -2.26069498   -0.98474503
 C          0.52449697    0.13920000   -0.98104799
 O          1.64656198    0.00107400   -1.83446395
 C         -0.12104500    1.48939800   -1.25730300
 C         -1.35786903    1.67203498   -0.38139200
 C         -2.10267305    2.95157290   -0.71344101
 O         -3.17198992    3.21956396    0.19144100
 O         -2.26262403    0.58623201   -0.59558302
 O          0.79763103    2.54164505   -0.98165798
 O         -1.33314097   -0.80476499    1.04163003
 H         -1.04630899    1.69598901    0.67059201
 H         -2.53232098   -1.39505696   -0.51770002
 H          0.85641098    0.12619799    0.06385500
 H         -0.42476001    1.52515101   -2.31355596
 C         -2.42646909   -0.72357702    1.95029497
 H          0.71796101   -2.23256493   -0.28731501
 H         -1.39213896    3.78281999   -0.73019701
 H         -2.55179405    2.85740495   -1.70518994
 H          1.64345205    2.25510693   -1.35264897
 H          2.32269001   -0.53112799   -1.33881998
 H         -2.78771901    3.45163393    1.04491901
 H         -2.88160992    0.27093300    1.93369699
 H         -2.02807498   -0.92287803    2.94505405
 H         -3.18775702   -1.47257602    1.70322597
 H         -0.86331898   -0.91715199   -2.22402811
 O          1.94675803   -2.37330389    0.86093199
 O          3.46034503   -1.28931201   -0.38370600
 C          4.21365499   -2.40697789    1.58707297
 C          3.12075806   -1.98370600    0.61458403
 H          4.49308205   -3.44115901    1.36431706
 H          3.84416008   -2.37597203    2.61326790
 H          5.09862900   -1.77863503    1.48599195
