34
wb97x-d4 ma-def2-tzvp(-f) cpcm(dmso) E: -955.836442180428, G: -955.60105028
 C         -2.27071309   -0.62694198   -0.21686999
 C         -1.19710398   -1.32038605   -1.04656398
 O         -1.18968594   -2.71100211   -0.76290101
 C          0.16791700   -0.69755697   -0.79402298
 O          1.10602903   -1.36139297   -1.62145901
 C          0.09940000    0.79935902   -1.07673001
 C         -1.03934205    1.42251503   -0.26201701
 C         -1.27843106    2.88444209   -0.59196198
 O         -1.65077305    3.08411193   -1.95403099
 O         -2.28010607    0.75236797   -0.52910399
 O          1.32035398    1.45823097   -0.79615498
 O         -2.03096890   -0.86055499    1.14120400
 H         -0.79583400    1.34561896    0.80483198
 H         -3.26901388   -0.98789400   -0.49087301
 H          0.43511400   -0.84759599    0.25923699
 H         -0.11884200    0.93845499   -2.14132595
 C         -3.08054590   -0.38654801    1.98045397
 H         -0.36396801   -3.04769492   -1.13717794
 H         -2.05357409    3.27648497    0.07679900
 H         -0.35799500    3.44509792   -0.42808700
 H          1.84107900    0.94515800   -0.12925500
 H          1.96751106   -1.40054905   -1.12529504
 H         -2.43283701    2.54261899   -2.11669898
 H         -3.15073609    0.70448798    1.94771695
 H         -2.84263110   -0.70491099    2.99515510
 H         -4.04057312   -0.81962800    1.67661905
 H         -1.46301901   -1.15605605   -2.09924793
 O          2.91645098    0.24798900    0.99416000
 O          3.34762907   -1.56978202   -0.23923101
 C          4.79688406   -1.09380996    1.59040296
 C          3.58728099   -0.78353900    0.71962500
 H          5.66637802   -0.58633000    1.16138101
 H          5.00194311   -2.16471505    1.60670698
 H          4.65272522   -0.72004998    2.60471392
