34
wb97x-d4 ma-def2-tzvp(-f) cpcm(dmso) E: -955.837453319437, G: -955.60104355
 C         -1.67544603   -0.60661900   -0.45052299
 C         -0.40999100   -0.75337499   -1.30262804
 O          0.10697900   -2.06364107   -1.25824797
 C          0.60609901    0.31020200   -0.89261502
 O          1.76032400    0.29644501   -1.71183097
 C         -0.03306200    1.68646896   -0.99738002
 C         -1.30180895    1.73609996   -0.15670501
 C         -2.05723500    3.04018092   -0.31311801
 O         -3.20408201    3.08474112    0.53179801
 O         -2.20029211    0.70527297   -0.58194399
 O          0.86332202    2.68901110   -0.53100801
 O         -1.36654198   -0.92247897    0.87695098
 H         -1.04310000    1.58976603    0.89822298
 H         -2.46982288   -1.26531506   -0.82026100
 H          0.89595300    0.14484601    0.15136001
 H         -0.29328701    1.87616897   -2.04855299
 C         -2.51413608   -0.98087603    1.71880305
 H          0.73727202   -2.15465307   -0.50078398
 H         -1.41514802    3.87270999   -0.02446000
 H         -2.34601593    3.16593289   -1.36424303
 H          1.72611797    2.46620107   -0.90654600
 H          2.41068912   -0.32110301   -1.28531301
 H         -3.73939800    2.30892706    0.32405001
 H         -2.97177291    0.00630900    1.83158100
 H         -2.17654800   -1.33747995    2.69176412
 H         -3.25517511   -1.67760503    1.31023395
 H         -0.71169698   -0.55911601   -2.33784795
 O          3.50808907   -1.25300097   -0.44902301
 O          1.93156803   -2.34057593    0.71200502
 C          4.19112015   -2.57982802    1.41664600
 C          3.12864089   -2.01733208    0.48142299
 H          4.08517790   -2.10124803    2.39435291
 H          5.19578886   -2.39328504    1.03769195
 H          4.03742218   -3.65175200    1.55614901
