34
wb97x-d4 ma-def2-tzvp(-f) cpcm(dmso) E: -955.837132813431, G: -955.60089978
 C         -2.32854795   -0.73262900   -0.22197700
 C         -1.25379002   -1.45231903   -1.03051698
 O         -1.21287298   -2.82186294   -0.66294801
 C          0.10254100   -0.78673398   -0.84539002
 O          1.03916705   -1.47434902   -1.65401399
 C         -0.02233400    0.68654001   -1.21640897
 C         -1.13903403    1.32582700   -0.38398200
 C         -1.39441001    2.77590704   -0.77358401
 O         -0.30446401    3.61713099   -0.41087601
 O         -2.36973000    0.62980503   -0.60624301
 O          1.19843495    1.39588797   -1.06288004
 O         -2.06668901   -0.89211202    1.14219499
 H         -0.87015599    1.28291094    0.67842001
 H         -3.32331300   -1.12442696   -0.46397400
 H          0.39561200   -0.86591500    0.20847601
 H         -0.30616000    0.75615001   -2.27402902
 C         -3.11535692   -0.39627400    1.97080803
 H         -0.40283400   -3.17472291   -1.05549097
 H         -1.58788097    2.83067298   -1.85322797
 H         -2.28096890    3.13768291   -0.24769799
 H          1.75457001    0.98260999   -0.34418899
 H          1.92019701   -1.41097999   -1.20096898
 H          0.49899900    3.12016296   -0.64311802
 H         -4.07036495   -0.86206698    1.70178103
 H         -3.20711303    0.69017297    1.88442397
 H         -2.85858989   -0.65881503    2.99672699
 H         -1.54140306   -1.35755897   -2.08593607
 O          2.79262710    0.46284801    0.82291597
 O          3.34317803   -1.37373805   -0.33341599
 C          4.58905602   -0.87241501    1.63775802
 C          3.49595094   -0.56696600    0.62432301
 H          4.13982582   -1.42677402    2.46759391
 H          5.01527405    0.04780800    2.03893709
 H          5.37058496   -1.49145806    1.19650900
