34
wb97x-d4 ma-def2-tzvp(-f) cpcm(dmso) E: -955.837022824719, G: -955.60089409
 C         -2.35952711   -0.70683300   -0.34734899
 C         -1.25580502   -1.47924197   -1.07481503
 O         -1.28581798   -2.84457302   -0.68615597
 C          0.10755300   -0.83216500   -0.84650803
 O          1.07421601   -1.48202395   -1.64652395
 C          0.01404300    0.65557301   -1.18404806
 C         -1.11404204    1.31315506   -0.38760999
 C         -1.30461895    2.77844095   -0.75772297
 O         -0.21175601    3.57771707   -0.31862000
 O         -2.35106802    0.66093898   -0.68689400
 O          1.24429703    1.33420503   -0.97359598
 O         -2.17169595   -0.91861498    1.02743804
 H         -0.89976400    1.23925304    0.68546599
 H         -3.34621000   -1.07348800   -0.65166098
 H          0.37104300   -0.93435597    0.21464901
 H         -0.22845700    0.75099802   -2.25009489
 C         -3.26667190   -0.46901199    1.82180202
 H         -1.28623605   -2.86007404    0.28019100
 H         -1.43742204    2.86074805   -1.84483004
 H         -2.20745397    3.15623212   -0.27232999
 H          1.74492002    0.91250801   -0.22093700
 H          1.95148695   -1.36402702   -1.20249200
 H          0.58719999    3.06702590   -0.53598797
 H         -4.19935703   -0.93515199    1.48504305
 H         -3.36571598    0.61897099    1.77115202
 H         -3.05817389   -0.76823902    2.84862399
 H         -1.47817898   -1.45594597   -2.14495897
 O          2.73633790    0.35013300    0.97481900
 O          3.42833900   -1.29033506   -0.37976301
 C          4.77962589   -0.77172202    1.50778103
 C          3.55587912   -0.54751903    0.63125098
 H          5.66959810   -0.88459998    0.88569897
 H          4.64463282   -1.70384598    2.06409788
 H          4.91879892    0.04586600    2.21488690
