34
wb97x-d4 ma-def2-tzvp(-f) cpcm(dmso) E: -955.837118071521, G: -955.60087971
 C         -2.33309388   -0.72627199   -0.27094701
 C         -1.24666798   -1.43098104   -1.07641697
 O         -1.21669197   -2.80890107   -0.73773801
 C          0.10887100   -0.77524698   -0.85592997
 O          1.05204201   -1.44650304   -1.67101800
 C         -0.00426100    0.70741498   -1.19022405
 C         -1.13092399    1.33018899   -0.35877001
 C         -1.37563801    2.79083490   -0.71238601
 O         -0.28323200    3.61593008   -0.31933701
 O         -2.36117792    0.64598900   -0.62081498
 O          1.21811604    1.40640998   -1.00172806
 O         -2.09797597   -0.92047399    1.09299803
 H         -0.88117599    1.25611103    0.70665503
 H         -3.32519794   -1.10538900   -0.54209399
 H          0.38840199   -0.88292301    0.19921499
 H         -0.27031699    0.80678201   -2.24992990
 C         -3.15922689   -0.44027400    1.91472304
 H         -0.40545300   -3.15793109   -1.13080394
 H         -1.56015003    2.87516093   -1.79166901
 H         -2.26391506    3.14490294   -0.18419300
 H          1.75134206    0.99016303   -0.26566100
 H          1.93205202   -1.38087296   -1.21629405
 H          0.51871502    3.11747789   -0.55512100
 H         -4.11321592   -0.88414103    1.60777795
 H         -3.23593092    0.64964700    1.86437297
 H         -2.92843890   -0.74229097    2.93596792
 H         -1.51696396   -1.31364703   -2.13412905
 O          2.76497412    0.44004500    0.90429199
 O          3.35278010   -1.31995702   -0.34834999
 C          4.59133005   -0.89945102    1.64530599
 C          3.49016595   -0.56264400    0.65066397
 H          4.99920607    0.00580100    2.09663391
 H          5.38517094   -1.47681499    1.17071700
 H          4.15647984   -1.50814700    2.44422889
