34
wb97x-d4 ma-def2-tzvp(-f) cpcm(dmso) E: -955.836123741791, G: -955.60086183
 C         -1.71076405   -0.67030501   -0.36401799
 C         -0.46327400   -0.88823903   -1.22593606
 O          0.07352800   -2.18201494   -1.06313896
 C          0.54684299    0.21948400   -0.93905199
 O          1.68490303    0.14358200   -1.77839994
 C         -0.10904400    1.57483101   -1.15720999
 C         -1.36899495    1.69300699   -0.30371001
 C         -2.11751699    2.98481488   -0.57481700
 O         -3.22004104    3.18050408    0.30750099
 O         -2.25588012    0.61446100   -0.60788900
 O          0.79000401    2.61940408   -0.80184001
 O         -1.36697400   -0.85527098    0.98153502
 H         -1.08365703    1.65499306    0.75533599
 H         -2.50345302   -1.37213802   -0.64843601
 H          0.85914898    0.15541001    0.10990600
 H         -0.38904801    1.66412997   -2.21687698
 C         -2.49447489   -0.84048301    1.85122395
 H          0.72512102   -2.17724395   -0.31800500
 H         -1.41605198    3.82159901   -0.51162302
 H         -2.53069711    2.95299006   -1.58603501
 H          1.64832997    2.36304808   -1.16607201
 H          2.34512496   -0.44442999   -1.32905197
 H         -2.86906004    3.33908105    1.19174194
 H         -2.96117902    0.14846399    1.87673104
 H         -2.13237405   -1.09632695    2.84687209
 H         -3.23654199   -1.58077300    1.53031504
 H         -0.78781199   -0.79797202   -2.26844811
 O          1.94873798   -2.30806708    0.86194199
 O          3.47192597   -1.33728898   -0.46211800
 C          4.24498606   -2.53093696    1.45500898
 C          3.13408995   -2.01082897    0.55140901
 H          3.90961504   -2.57109499    2.49216509
 H          5.14179611   -1.91684902    1.37004304
 H          4.49268389   -3.54953909    1.14094698
