34
wb97x-d4 ma-def2-tzvp(-f) cpcm(dmso) E: -955.836467628227, G: -955.60085329
 C         -2.26967096   -0.65212500   -0.17723100
 C         -1.20780301   -1.37090302   -1.00099194
 O         -1.19943094   -2.75218105   -0.67528802
 C          0.16010600   -0.74154502   -0.78383702
 O          1.09040499   -1.43215096   -1.59862101
 C          0.08725100    0.74547303   -1.11433899
 C         -1.03604305    1.39338899   -0.29785001
 C         -1.27682102    2.84686399   -0.66137302
 O         -1.66199803    3.01452994   -2.02415109
 O         -2.28173709    0.71794701   -0.52752000
 O          1.31462097    1.41050506   -0.88453501
 O         -2.01170707   -0.84892398    1.18349195
 H         -0.77625000    1.34391701    0.76689601
 H         -3.27199292   -1.01888299   -0.42771199
 H          0.43846399   -0.85748798    0.27071601
 H         -0.15231200    0.85045701   -2.17811298
 C         -3.04673004   -0.34636399    2.02427506
 H         -0.38767099   -3.10616302   -1.06358695
 H         -2.04455590    3.25642705    0.00545500
 H         -0.35387999    3.40950990   -0.52024198
 H          1.82187903    0.95180303   -0.16823700
 H          1.95903504   -1.43392503   -1.11659002
 H         -2.45024610    2.47595811   -2.16491008
 H         -2.80355501   -0.65085900    3.04198909
 H         -4.01563215   -0.77102500    1.73724699
 H         -3.10241294    0.74483103    1.97346401
 H         -1.48657501   -1.23786104   -2.05475712
 O          3.37569404   -1.47777796   -0.25538501
 O          2.88392210    0.31200299    0.99669999
 C          4.79784012   -0.97918898    1.59170997
 C          3.58619690   -0.69679701    0.71390098
 H          5.64348221   -0.40164500    1.20597005
 H          5.06436586   -2.03615093    1.56459904
 H          4.61376095   -0.66165698    2.61885595
