34
wb97x-d4 ma-def2-tzvp(-f) cpcm(dmso) E: -955.83703331151, G: -955.6020353
 C         -2.45990992   -0.59131199   -0.42365000
 C         -1.25502706   -1.40196502   -0.88012898
 O         -1.47489595   -2.77868795   -0.61131698
 C          0.02166000   -0.89964598   -0.22255901
 O          1.08472705   -1.65925002   -0.76986998
 C          0.18656699    0.59837198   -0.47793001
 C         -1.09061003    1.33591700   -0.07973100
 C         -1.06454301    2.79464293   -0.48956200
 O         -2.23699594    3.48220301   -0.05859900
 O         -2.23318911    0.77024001   -0.73547602
 O          1.24372995    1.15243101    0.28155100
 O         -2.67259002   -0.79989499    0.94215602
 H         -1.22012305    1.26619005    1.00625801
 H         -3.35565710   -0.86861497   -0.99159002
 H         -0.04192400   -1.06120801    0.86112303
 H          0.36156100    0.74445099   -1.55390799
 C         -3.87529707   -0.19852801    1.41481996
 H         -0.62682903   -3.21691990   -0.76274103
 H         -0.21308000    3.29031706   -0.02466800
 H         -0.95893198    2.85982394   -1.57993400
 H          2.11426592    0.78368503   -0.01341500
 H          1.88707495   -1.57597399   -0.18896200
 H         -2.99369001    2.99609900   -0.40911600
 H         -4.73099422   -0.52906400    0.81498200
 H         -3.81103301    0.89292198    1.38130605
 H         -4.00730896   -0.52247602    2.44688201
 H         -1.16696405   -1.24388099   -1.96292102
 O          3.74928999    0.38742301   -0.28053501
 O          3.30525303   -1.58339298    0.67294103
 C          5.58411884   -0.88876897    0.56395698
 C          4.10035801   -0.67251003    0.30654401
 H          6.10907984    0.06233000    0.65689099
 H          6.00388098   -1.42950499   -0.28984201
 H          5.73801804   -1.49544501    1.45704198
