34
wb97x-d4 ma-def2-tzvp(-f) cpcm(dmso) E: -955.835824115578, G: -955.60066539
 C         -2.27839899   -0.71209002   -0.54836899
 C         -1.06068802   -1.59791601   -0.31793800
 O         -1.47274601   -2.92804694   -0.04240300
 C         -0.20353299   -1.03269506    0.80865902
 O          0.89651603   -1.89122605    1.05778897
 C          0.20864300    0.39131701    0.44607601
 C         -1.04303801    1.22028697    0.15255700
 C         -0.73404700    2.61375189   -0.36301699
 O         -0.00279800    2.59717298   -1.58652699
 O         -1.84065604    0.59603798   -0.86388600
 O          0.92853701    1.01069999    1.49459696
 O         -3.09321499   -0.73920602    0.58834398
 H         -1.62781405    1.31941795    1.07555997
 H         -2.84560704   -1.04068696   -1.42716503
 H         -0.79927999   -1.00332606    1.72693396
 H          0.82346100    0.35692799   -0.46141100
 C         -4.33864021   -0.07455900    0.39541000
 H         -0.68369597   -3.38285589    0.28260100
 H         -1.67703402    3.15865898   -0.48871601
 H         -0.12044600    3.14021611    0.36793801
 H          1.88523304    0.80788898    1.34137499
 H          1.67644596   -1.61414599    0.50846601
 H         -0.52422899    2.09413099   -2.22381496
 H         -4.19376278    0.99787098    0.23687200
 H         -4.92501879   -0.23115499    1.30058897
 H         -4.87099791   -0.49902299   -0.46352199
 H         -0.47581500   -1.57480204   -1.24717999
 O          3.50400591    0.50217497    0.95927602
 O          3.10741401   -1.30038500   -0.30796701
 C          5.23420000   -0.23985100   -0.50301600
 C          3.84251809   -0.36078101    0.10293200
 H          5.59419203   -1.20719302   -0.85439199
 H          5.93531513    0.18718000    0.21498300
 H          5.17498016    0.43621001   -1.36163604
