34
wb97x-d4 ma-def2-tzvp(-f) cpcm(dmso) E: -955.83491897014, G: -955.60055991
 C         -2.48439693   -0.66178602   -0.40489799
 C         -1.27971995   -1.47606504   -0.85392398
 O         -1.48299694   -2.84750509   -0.54700798
 C         -0.00286500   -0.94469100   -0.22224601
 O          1.06247199   -1.71040404   -0.75651699
 C          0.14825000    0.54745501   -0.51734799
 C         -1.13461995    1.28732002   -0.12980500
 C         -1.09521401    2.73477793   -0.56404799
 O         -2.19872904    3.42462111    0.02680800
 O         -2.27560496    0.69116902   -0.75738400
 O          1.20817697    1.12204599    0.22289100
 O         -2.67787099   -0.83602399    0.96966499
 H         -1.24883699    1.24400198    0.95956302
 H         -3.38531899   -0.96364498   -0.95211297
 H         -0.05639300   -1.07661903    0.86600500
 H          0.31727800    0.66779298   -1.59756005
 C         -3.87789202   -0.22981501    1.44241905
 H         -0.62826502   -3.27820992   -0.68167502
 H         -0.14828800    3.17254901   -0.23861399
 H         -1.15126395    2.78114200   -1.65837097
 H          2.07646203    0.74019098   -0.05986500
 H          1.86875796   -1.60441303   -0.18505500
 H         -2.15775490    4.34402084   -0.25782299
 H         -4.73988390   -0.58336598    0.86501300
 H         -3.82273293    0.86050302    1.37689400
 H         -3.99288106   -0.52499199    2.48518896
 H         -1.20450699   -1.34554005   -1.94134700
 O          3.71120691    0.34428000   -0.35405901
 O          3.28053808   -1.58167005    0.69148499
 C          5.55148792   -0.86083102    0.58081597
 C          4.06914282   -0.67935199    0.29075101
 H          5.69896078   -1.41006005    1.51142800
 H          6.06347179    0.10086300    0.62291700
 H          5.98983097   -1.44774306   -0.23218299
