34
wb97x-d4 ma-def2-tzvp(-f) cpcm(dmso) E: -955.836471718322, G: -955.60040614
 C         -1.74412405   -0.69963998   -0.50441599
 C         -0.43686500   -0.80546802   -1.29675496
 O          0.11605500   -2.10063004   -1.22890496
 C          0.52805299    0.28352600   -0.83119601
 O          1.71713805    0.31246799   -1.59832895
 C         -0.15800899    1.63341701   -0.95864600
 C         -1.46895897    1.64619505   -0.17898700
 C         -2.25729203    2.93757510   -0.36504799
 O         -1.64580405    4.04204798    0.29308999
 O         -2.30894303    0.59444302   -0.65502203
 O          0.67498797    2.67574000   -0.45244101
 O         -1.48267198   -1.00929904    0.83521998
 H         -1.25524998    1.50971901    0.88767302
 H         -2.49934006   -1.38342798   -0.90882301
 H          0.77499503    0.11796800    0.22364500
 H         -0.37931001    1.81892300   -2.01891303
 C         -2.66138101   -1.09589303    1.63018298
 H          0.72807801   -2.15690088   -0.45275599
 H         -2.37998509    3.13767195   -1.43734300
 H         -3.24786806    2.80939007    0.07613200
 H          1.53626204    2.57272696   -0.87831497
 H          2.36457300   -0.29225600   -1.15113294
 H         -0.71358502    4.04526281    0.03216300
 H         -3.14272904   -0.11877100    1.73003805
 H         -2.35607100   -1.45120001    2.61421704
 H         -3.37160206   -1.80467904    1.18906796
 H         -0.69275898   -0.61268502   -2.34447908
 O          1.88127697   -2.38422394    0.77732497
 O          3.46492290   -1.21797204   -0.29493701
 C          4.13833284   -2.62136197    1.50986099
 C          3.07565594   -2.02110100    0.59861100
 H          4.99571419   -1.95438194    1.60411298
 H          4.48184919   -3.55897188    1.06197500
 H          3.72464705   -2.84821391    2.49312711
