34
wb97x-d4 ma-def2-tzvp(-f) cpcm(dmso) E: -955.835195990402, G: -955.60021496
 C         -2.27955389   -0.65737802   -0.38911599
 C         -1.17141294   -1.30515504   -1.22270095
 O         -1.16339397   -2.71069193   -1.01271605
 C          0.18266000   -0.66088998   -0.93680501
 O          1.14475501   -1.17332494   -1.83838797
 C          0.06175000    0.85805798   -1.06666005
 C         -1.06687200    1.37442195   -0.17251900
 C         -1.27158403    2.87664199   -0.26406500
 O         -1.47246599    3.35273004   -1.59411097
 O         -2.29960608    0.74178803   -0.54077601
 O          1.27551198    1.52342403   -0.77588201
 O         -2.07299399   -1.05140603    0.94474602
 H         -0.83290100    1.14057600    0.87400502
 H         -3.26328802   -1.00004303   -0.72929001
 H          0.47464499   -0.90093100    0.09409400
 H         -0.19511500    1.08194304   -2.10907292
 C         -3.16307592   -0.72497499    1.80277705
 H         -1.15518606   -2.84987497   -0.05640600
 H         -2.17015409    3.13965201    0.29841700
 H         -0.41555101    3.37562895    0.19769099
 H          1.79742205    1.00941598   -0.10719200
 H          2.00672793   -1.20634902   -1.35435402
 H         -0.61730897    3.37541795   -2.03789711
 H         -4.09709501   -1.14181602    1.40973496
 H         -3.26633906    0.35839501    1.90990400
 H         -2.94618011   -1.16705203    2.77486992
 H         -1.41358805   -1.15201104   -2.27782798
 O          3.42055607   -1.31903505   -0.43775699
 O          2.83859301    0.28676501    1.00930202
 C          4.67643404   -1.12531698    1.57753897
 C          3.55155993   -0.68990898    0.64782703
 H          5.58826208   -0.59644997    1.28315306
 H          4.86317110   -2.19600892    1.48694694
 H          4.45161819   -0.86623901    2.61252904
