34
wb97x-d4 ma-def2-tzvp(-f) cpcm(dmso) E: -955.837033551253, G: -955.60201905
 C         -2.46487689   -0.62820798   -0.33478999
 C         -1.27400398   -1.47322404   -0.76543498
 O         -1.47921300   -2.82560802   -0.38562101
 C          0.02265900   -0.92316097   -0.18999401
 O          1.06595504   -1.72764397   -0.71020198
 C          0.17833300    0.55028600   -0.56505799
 C         -1.08746898    1.31629503   -0.18386500
 C         -1.07635701    2.74196696   -0.69764698
 O         -2.23495507    3.45994496   -0.27882001
 O         -2.24773192    0.70407403   -0.76133400
 O          1.25837600    1.16030097    0.11552400
 O         -2.63399911   -0.72679299    1.04916799
 H         -1.18389797    1.32516396    0.90779698
 H         -3.37802911   -0.94792700   -0.85038197
 H         -0.00631400   -0.99972302    0.90457898
 H          0.31873000    0.61309499   -1.65414000
 C         -3.82129192   -0.08624300    1.50993204
 H         -0.62758702   -3.26618290   -0.50840801
 H         -0.21075700    3.26810694   -0.29666200
 H         -1.00592303    2.72927094   -1.79273999
 H          2.11606908    0.75073498   -0.16112500
 H          1.88575995   -1.60852802   -0.16055299
 H         -3.00236392    2.94910693   -0.56475598
 H         -3.76018000    0.99842900    1.38284302
 H         -3.91803193   -0.32246700    2.56932807
 H         -4.69592190   -0.46505299    0.96885198
 H         -1.22106004   -1.39828897   -1.85947800
 O          3.30904102   -1.56727600    0.69502699
 O          3.73766589    0.30015999   -0.45286599
 C          5.56686401   -0.79455203    0.62324500
 C          4.09553385   -0.68300599    0.25259000
 H          5.73232222   -0.22303100    1.54171705
 H          6.19697809   -0.36827701   -0.15822200
 H          5.84567881   -1.83174300    0.81149501
