34
wb97x-d4 ma-def2-tzvp(-f) cpcm(dmso) E: -955.835314942839, G: -955.6000468
 C         -2.33048797   -0.68257600   -0.24817200
 C         -1.23877597   -1.35962903   -1.07004201
 O         -1.22170401   -2.75246906   -0.79716599
 C          0.11919200   -0.72542101   -0.80320799
 O          1.06642401   -1.36451197   -1.63914001
 C          0.02704800    0.77447897   -1.06459796
 C         -1.11026096    1.36106503   -0.22185200
 C         -1.30865097    2.85134101   -0.43549100
 O         -1.51836097    3.21571898   -1.79882503
 O         -2.34405398    0.70166999   -0.53606701
 O          1.24167204    1.45172906   -0.80593902
 O         -2.11441493   -0.94226497    1.11037505
 H         -0.87580198    1.21339405    0.84012002
 H         -3.32116508   -1.04608798   -0.54600400
 H          0.38690701   -0.88605499    0.24842800
 H         -0.21514000    0.91723198   -2.12471294
 C         -3.18020511   -0.48457500    1.93755996
 H         -0.39820400   -3.08304000   -1.18121004
 H         -2.19938993    3.16710305    0.11198100
 H         -0.44400299    3.37985206   -0.02524000
 H          1.78517902    0.94803399   -0.14845200
 H          1.93139994   -1.38576698   -1.14977896
 H         -0.66734499    3.19452000   -2.25024605
 H         -3.25102091    0.60691100    1.92367005
 H         -2.96240997   -0.82157201    2.95083690
 H         -4.13388491   -0.91209102    1.60664296
 H         -1.49491096   -1.19018900   -2.12435699
 O          2.86085796    0.28571799    0.97702301
 O          3.32861996   -1.51188505   -0.27182201
 C          4.77475023   -1.00966704    1.55772996
 C          3.55537391   -0.72760201    0.69085002
 H          4.57440901   -0.74853599    2.59790707
 H          5.59879923   -0.38115099    1.20674801
 H          5.07955599   -2.05367398    1.48244905
