34
wb97x-d4 ma-def2-tzvp(-f) cpcm(dmso) E: -955.835917586494, G: -955.60004413
 C         -2.25844502   -0.67933601   -0.52827901
 C         -1.05046499   -1.59012902   -0.34198600
 O         -1.48247898   -2.90594101   -0.02942100
 C         -0.12024000   -1.03815603    0.73326099
 O          0.97876602   -1.91445994    0.91728097
 C          0.29338601    0.38361901    0.35860199
 C         -0.96706599    1.22037995    0.14417100
 C         -0.66367298    2.61643100   -0.35978699
 O         -1.85065806    3.39735389   -0.48284000
 O         -1.80115199    0.61931401   -0.85704499
 O          1.08036304    0.98217899    1.36868703
 O         -3.03757000   -0.69215602    0.63285798
 H         -1.52139103    1.28978598    1.08748102
 H         -2.85952902   -0.99469602   -1.38929105
 H         -0.66228902   -1.00092804    1.68429399
 H          0.85299999    0.35146001   -0.58627802
 C         -4.27100277    0.00505100    0.47665000
 H         -0.68776202   -3.38650608    0.23904200
 H         -0.01534400    3.12812805    0.35062799
 H         -0.14588800    2.54763103   -1.32485497
 H          2.02388501    0.73846602    1.18457699
 H          1.73983705   -1.63097703    0.34575999
 H         -2.45917010    2.89923191   -1.04264700
 H         -4.84519291   -0.41518801   -0.35706499
 H         -4.10199499    1.07075596    0.29776701
 H         -4.82795477   -0.12312300    1.40438497
 H         -0.51163697   -1.59281695   -1.29887605
 O          3.62740588    0.43040201    0.77348000
 O          3.13233900   -1.31979203   -0.53131199
 C          5.36175203   -0.48443899   -0.58926898
 C          3.93160391   -0.45945701   -0.06772400
 H          5.69329023   -1.51126504   -0.75017202
 H          6.04013395    0.02876000    0.09243400
 H          5.38514709    0.03041700   -1.55450797
