34
wb97x-d4 ma-def2-tzvp(-f) cpcm(dmso) E: -955.834420232317, G: -955.60001238
 C         -1.44957697   -0.55707401   -0.58530498
 C         -0.05082600   -0.87245703   -0.05675100
 O          0.07958500   -2.25568104    0.18664899
 C          0.22426499   -0.02751400    1.18455303
 O          1.51805997   -0.23249100    1.72434497
 C          0.02267000    1.44618797    0.84459603
 C         -1.38155997    1.66482496    0.29221401
 C         -1.60587001    3.09244108   -0.14997800
 O         -2.99051309    3.26747298   -0.45577300
 O         -1.57236195    0.82814699   -0.85389602
 O          0.19220001    2.24839401    2.00967693
 O         -2.40020704   -0.99975699    0.34278500
 H         -2.11510110    1.40824294    1.06541002
 H         -1.61248696   -1.04570305   -1.55282795
 H         -0.49283099   -0.29818100    1.96719301
 H          0.75747502    1.73819399    0.08046400
 C         -3.73571110   -0.90747100   -0.14471100
 H          1.02732396   -2.48960090    0.00489300
 H         -1.30332899    3.76373196    0.65889502
 H         -0.98617297    3.29787397   -1.03112304
 H          0.98605400    1.91251898    2.44714594
 H          2.15829301   -0.44882101    0.99600703
 H         -3.12302804    4.18834877   -0.70592600
 H         -4.37814903   -1.37763298    0.59960997
 H         -3.83341503   -1.43648398   -1.09986806
 H         -4.03640318    0.13568400   -0.27875301
 H          0.64812702   -0.56504798   -0.84482801
 O          2.57803106   -2.89406896   -0.46136001
 O          3.36774206   -0.83055001   -0.10001200
 C          4.77271318   -2.37797594   -1.24322295
 C          3.47447395   -2.00915694   -0.53848100
 H          4.91773319   -3.45821810   -1.26449203
 H          5.62317419   -1.89214897   -0.76257402
 H          4.71962690   -2.01602697   -2.27455711
