34
wb97x-d4 ma-def2-tzvp(-f) cpcm(dmso) E: -955.835943251328, G: -955.5999404
 C         -2.26706696   -0.67292899   -0.51561898
 C         -1.05529904   -1.58160996   -0.34386799
 O         -1.48052895   -2.89880109   -0.02757700
 C         -0.11340900   -1.02903402    0.72102898
 O          0.98897302   -1.90352404    0.89221102
 C          0.29324600    0.39366001    0.34227899
 C         -0.97150999    1.22808802    0.14476500
 C         -0.67804700    2.62629890   -0.35879299
 O         -1.86860394    3.40428090   -0.46567899
 O         -1.81569302    0.62717497   -0.84802997
 O          1.09265602    0.99289900    1.34199095
 O         -3.03384995   -0.68727702    0.65358198
 H         -1.51466703    1.29337394    1.09485805
 H         -2.87683392   -0.98827600   -1.37045598
 H         -0.64460403   -0.99323601    1.67824197
 H          0.84004200    0.36343899   -0.61019802
 C         -4.27030897    0.00737300    0.51007903
 H         -0.68269098   -3.37467694    0.24033900
 H         -0.02313600    3.13793492    0.34560201
 H         -0.17125601    2.56184602   -1.32994699
 H          2.03328800    0.74523199    1.14857101
 H          1.74169898   -1.62148702    0.30874100
 H         -2.48144603    2.90727901   -1.02172601
 H         -4.10546923    1.07488501    0.33818799
 H         -4.82108402   -0.12974900    1.44022906
 H         -4.84838104   -0.40799600   -0.32337400
 H         -0.52798498   -1.58204305   -1.30714500
 O          3.63098192    0.43179101    0.72100103
 O          3.12489891   -1.31414294   -0.58532500
 C          5.37377691   -0.51815403   -0.59901297
 C          3.92862105   -0.45691901   -0.12401100
 H          5.94089413   -1.12875104    0.11034800
 H          5.81947422    0.47710401   -0.61903602
 H          5.44331884   -0.98405099   -1.58225906
