34
wb97x-d4 ma-def2-tzvp(-f) cpcm(dmso) E: -955.835409002875, G: -955.5998678999999
 C         -1.48596001   -0.64053500   -0.60671598
 C         -0.09573200   -0.90013701   -0.02595600
 O          0.04832600   -2.26395512    0.30452299
 C          0.13924700    0.02291500    1.16883695
 O          1.42750204   -0.12299900    1.73887503
 C         -0.08167900    1.46272194    0.72051001
 C         -1.47197902    1.63223696    0.11794700
 C         -1.70503199    3.02469897   -0.45706201
 O         -1.82488501    4.01470613    0.55909997
 O         -1.62203205    0.72335500   -0.97364700
 O          0.04231100    2.36281896    1.82227397
 O         -2.44942188   -1.03072095    0.33004501
 H         -2.22700691    1.43036902    0.88676202
 H         -1.62061203   -1.19674397   -1.54139996
 H         -0.58802903   -0.21192101    1.95309198
 H          0.66511899    1.71347499   -0.04578500
 C         -3.77781391   -0.98408902   -0.18316500
 H          0.99058503   -2.50349593    0.10879700
 H         -0.89101702    3.27146196   -1.15080595
 H         -2.64376998    3.02247095   -1.01489794
 H          0.89495897    2.17846394    2.23753905
 H          2.08234596   -0.36691201    1.03333402
 H         -1.07649004    3.89167905    1.16085005
 H         -4.42570114   -1.42908001    0.57166898
 H         -3.85060501   -1.55907404   -1.11354494
 H         -4.09261703    0.04640900   -0.37108901
 H          0.61889100   -0.63022101   -0.81331098
 O          2.56313491   -2.85375309   -0.33776900
 O          3.32033396   -0.76858902   -0.03177900
 C          4.69903803   -2.29181099   -1.23883796
 C          3.43205404   -1.94769895   -0.46727499
 H          4.89212322   -3.36460996   -1.22089505
 H          5.55553722   -1.74641097   -0.84032398
 H          4.55887604   -1.98502600   -2.27989197
