34
wb97x-d4 ma-def2-tzvp(-f) cpcm(dmso) E: -955.835407957031, G: -955.59973486
 C         -1.48804903   -0.61056203   -0.65965402
 C         -0.09929700   -0.89536703   -0.08896200
 O          0.05214600   -2.27463388    0.16450800
 C          0.12851900   -0.04092400    1.15740502
 O          1.41908705   -0.21243000    1.71513200
 C         -0.10317000    1.42182600    0.79695398
 C         -1.48829603    1.61844802    0.19054900
 C         -1.72039700    3.03942108   -0.31099600
 O         -1.84402096    3.97517991    0.75478798
 O         -1.62611997    0.77119899   -0.95101398
 O         -0.00250900    2.25314498    1.95450199
 O         -2.45430303   -1.05536997    0.24911401
 H         -2.24964809    1.37274396    0.94010502
 H         -1.61698198   -1.11413801   -1.62458396
 H         -0.59633303   -0.32761699    1.92653298
 H          0.65018100    1.72691500    0.05745800
 C         -3.78050303   -0.97977901   -0.26661599
 H          1.00141394   -2.49221611   -0.02465200
 H         -0.90349799    3.32206607   -0.98748702
 H         -2.65671110    3.06604195   -0.87228501
 H          0.86249799    2.08115602    2.34839797
 H          2.07115197   -0.41523701    0.99472898
 H         -1.10304201    3.81311393    1.35674906
 H         -3.85084009   -1.50795996   -1.22444403
 H         -4.09160900    0.05972400   -0.40481600
 H         -4.43276596   -1.45945096    0.46283701
 H          0.61635500   -0.57768101   -0.85738301
 O          3.30586195   -0.75002402   -0.09829200
 O          2.56668711   -2.82264996   -0.51248503
 C          4.75286388   -2.22461009   -1.27463400
 C          3.43820500   -1.91236305   -0.57250398
 H          4.78403616   -3.25610399   -1.62497306
 H          5.58437300   -2.04360390   -0.58938301
 H          4.87471390   -1.54826105   -2.12459898
