34
wb97x-d4 ma-def2-tzvp(-f) cpcm(dmso) E: -955.834323755112, G: -955.59958298
 C         -2.26832700   -0.74178898   -0.50840402
 C         -1.06135499   -1.64076102   -0.27400899
 O         -1.49246895   -2.93510890    0.12033000
 C         -0.12985900   -1.02391696    0.76254302
 O          0.97312301   -1.88283300    0.99743199
 C          0.28094399    0.37389600    0.30572900
 C         -0.97748601    1.20083404    0.02744700
 C         -0.64457399    2.55988598   -0.55602801
 O         -1.78734601    3.40832710   -0.66226399
 O         -1.81747901    0.53289002   -0.92259902
 O          1.05957401    1.02666199    1.28925705
 O         -3.03722906   -0.68443698    0.65971398
 H         -1.52523196    1.33790505    0.96910697
 H         -2.87782693   -1.10980105   -1.34225404
 H         -0.66938400   -0.93195099    1.71127701
 H          0.85130203    0.28584400   -0.62928498
 C         -4.26833391    0.00997500    0.47876900
 H         -0.69792002   -3.39582491    0.42190501
 H          0.13070600    3.02634001    0.05695200
 H         -0.25974000    2.43283296   -1.57094598
 H          2.00600600    0.79310101    1.11210597
 H          1.72325897   -1.64784801    0.38811699
 H         -2.07003498    3.64044809    0.22984099
 H         -4.83163595   -0.09852100    1.40534401
 H         -4.83730602   -0.42740899   -0.34976599
 H         -4.09742212    1.07143497    0.27761000
 H         -0.52653301   -1.70282805   -1.23116195
 O          3.60053706    0.43027601    0.69252002
 O          3.09951401   -1.38221800   -0.52147698
 C          5.30172777   -0.49516600   -0.70458698
 C          3.88817000   -0.47361600   -0.13885200
 H          5.89632177   -1.20195699   -0.11768200
 H          5.76970816    0.48721600   -0.63775200
 H          5.29659986   -0.84188199   -1.73893201
