34
wb97x-d4 ma-def2-tzvp(-f) cpcm(dmso) E: -955.834389193778, G: -955.5995398599999
 C         -2.24936700   -0.70158702   -0.25427499
 C         -1.20872796   -1.49067605   -1.05003703
 O         -1.21532404   -2.85220003   -0.64452398
 C          0.16819701   -0.84587198   -0.92532998
 O          1.08457804   -1.51616597   -1.76848698
 C          0.07866000    0.64014399   -1.28175604
 C         -1.00141501    1.31856501   -0.43345600
 C         -1.19877398    2.76353097   -0.82879400
 O         -2.05687094    3.39130402    0.12645800
 O         -2.25823212    0.65528399   -0.62323302
 O          1.32573903    1.29137897   -1.13991594
 O         -1.95914698   -0.89087802    1.10797501
 H         -0.71584702    1.27048802    0.62441099
 H         -3.25860596   -1.06806803   -0.47407901
 H          0.49741799   -0.93071198    0.11860700
 H         -0.21478100    0.72051001   -2.33668089
 C         -2.97795796   -0.39860299    1.97474504
 H         -1.14809597   -2.85725594    0.31956300
 H         -0.22326000    3.25573993   -0.85340297
 H         -1.64297295    2.80337310   -1.83085501
 H          1.83720899    0.88606697   -0.39279300
 H          1.96616101   -1.47126901   -1.32299805
 H         -2.16146111    4.31316423   -0.13310400
 H         -2.69719410   -0.68295097    2.98850203
 H         -3.94567394   -0.84672999    1.72266102
 H         -3.05513811    0.69028801    1.90915298
 H         -1.50946105   -1.47944403   -2.10107398
 O          3.41829395   -1.43889201   -0.44847801
 O          2.86721206    0.32071400    0.82136899
 C          4.74409723   -0.99387503    1.48226595
 C          3.58054996   -0.68479902    0.54980201
 H          5.62924004   -0.46672001    1.11318099
 H          4.96401119   -2.06200409    1.49110198
 H          4.53694296   -0.64185101    2.49347806
