34
wb97x-d4 ma-def2-tzvp(-f) cpcm(dmso) E: -955.836623181239, G: -955.59951615
 C         -2.31120896   -0.79620999   -0.56855601
 C         -1.08353996   -1.65387595   -0.28005201
 O         -1.49030197   -2.95083690    0.12742101
 C         -0.19516200   -0.98965400    0.76786101
 O          0.92969102   -1.80660796    1.04280806
 C          0.17415000    0.40434200    0.27132499
 C         -1.10505605    1.18954003   -0.02353900
 C         -0.81909001    2.56476808   -0.61449802
 O         -0.24404299    3.44059110    0.34870100
 O         -1.89234602    0.48974699   -0.99140900
 O          0.95087802    1.11938405    1.22078204
 O         -3.11630011   -0.74510098    0.57394302
 H         -1.67513502    1.31553495    0.90473700
 H         -2.88114405   -1.19967401   -1.41359794
 H         -0.75749397   -0.89284402    1.70235801
 H          0.73611301    0.30728900   -0.66694498
 C         -4.36532211   -0.09814600    0.34400401
 H         -0.69071501   -3.38937807    0.44845000
 H         -0.16127899    2.45516992   -1.48682702
 H         -1.75950205    3.01024604   -0.94709200
 H          1.90498698    0.88194603    1.06033802
 H          1.66995502   -1.57269001    0.42438200
 H          0.43140301    2.91343403    0.80870497
 H         -4.22552586    0.96363199    0.12247100
 H         -4.95070982   -0.20417701    1.25695002
 H         -4.89623308   -0.57442403   -0.48823699
 H         -0.51917899   -1.71841896   -1.21991003
 O          3.48622704    0.55783200    0.71887797
 O          3.03376389   -1.25583696   -0.51136303
 C          5.23618412   -0.34576300   -0.62458700
 C          3.80507493   -0.34373701   -0.10619800
 H          5.84942102   -0.92905200    0.06911000
 H          5.63771486    0.66738099   -0.66313797
 H          5.29371500   -0.81440997   -1.60727501
