34
wb97x-d4 ma-def2-tzvp(-f) cpcm(dmso) E: -955.835313642533, G: -955.5991792799999
 C         -2.31446099   -0.70669001   -0.21359900
 C         -1.22515702   -1.41761100   -1.00942898
 O         -1.20068800   -2.79519892   -0.66850400
 C          0.13094001   -0.76497197   -0.78244501
 O          1.07706702   -1.44186795   -1.58994102
 C          0.03074100    0.71954203   -1.11846697
 C         -1.10301805    1.34234595   -0.29738501
 C         -1.31448805    2.81850505   -0.58290100
 O         -1.54683006    3.11191392   -1.95956004
 O         -2.33597207    0.66165698   -0.56761599
 O          1.24558401    1.41224301   -0.90637201
 O         -2.08865190   -0.89940500    1.15475404
 H         -0.85892600    1.24970102    0.76872498
 H         -3.30555606   -1.08765399   -0.48708001
 H          0.40447199   -0.87197900    0.27437299
 H         -0.21895000    0.80807102   -2.18262696
 C         -3.14488101   -0.39354900    1.96642804
 H         -0.38388199   -3.14442301   -1.05012202
 H         -2.20005608    3.15555906   -0.03977600
 H         -0.44838300    3.37308693   -0.21219900
 H          1.77520299    0.96873802   -0.19548200
 H          1.94759297   -1.41723001   -1.11262298
 H         -0.70283997    3.07135510   -2.42279005
 H         -3.19594002    0.69786102    1.91424799
 H         -2.93170094   -0.69880801    2.99064302
 H         -4.10708094   -0.81433100    1.65215898
 H         -1.48851204   -1.30103803   -2.06908202
 O          3.36711407   -1.44392204   -0.24777600
 O          2.84434795    0.36253700    0.96731001
 C          4.71565294   -0.93727899    1.65637195
 C          3.54740691   -0.65583599    0.72151202
 H          5.07902098   -1.95843101    1.54119396
 H          4.42258120   -0.75740600    2.69225907
 H          5.52825308   -0.24548399    1.41579700
