34
wb97x-d4 ma-def2-tzvp(-f) cpcm(dmso) E: -955.832796605846, G: -955.5988948199999
 C         -2.32954693   -0.72815001   -0.61480200
 C         -1.21122301   -1.75671399   -0.46655500
 O         -1.73923004   -3.00074410   -0.02894900
 C         -0.09684500   -1.24726498    0.44320601
 O          0.96165699   -2.19322801    0.36796999
 C          0.33573401    0.15579000    0.01275400
 C         -0.87203997    1.08007801   -0.13334499
 C         -0.49899200    2.44147205   -0.70873702
 O          0.26908299    3.21774912    0.20390800
 O         -1.82019305    0.51667303   -1.04082704
 O          1.19676900    0.76101100    0.97065502
 O         -2.98804903   -0.64607698    0.62029302
 H         -1.33390701    1.22239804    0.85038900
 H         -3.03190589   -1.03298903   -1.39833701
 H         -0.47401601   -1.18226004    1.47341096
 H          0.84155399    0.08124000   -0.96102101
 C         -4.20342016    0.09831200    0.56522602
 H         -2.27201009   -2.82094789    0.75686699
 H          0.04250800    2.29734397   -1.65301096
 H         -1.41575003    2.99663210   -0.92058402
 H          2.05075097    0.24911800    1.00931001
 H          1.80147696   -1.79289997    0.67496800
 H          0.91078401    2.60443902    0.59971702
 H         -4.86910391   -0.31379199   -0.20124801
 H         -4.00655603    1.15172505    0.34733599
 H         -4.67280102    0.01060400    1.54456496
 H         -0.78978002   -1.93465304   -1.45910001
 O          3.24797511   -0.85043597    1.10463202
 O          4.91621780   -1.77445698   -0.05637700
 C          4.43338013    0.54538298   -0.41805500
 C          4.20170498   -0.80385900    0.24942701
 H          4.56084394    1.31906700    0.34278300
 H          3.54920602    0.80851299   -1.00604796
 H          5.30572605    0.52092302   -1.07042098
