34
wb97x-d4 ma-def2-tzvp(-f) cpcm(dmso) E: -955.833404909991, G: -955.598845
 C         -2.33852792   -0.56097400    0.08675400
 C         -1.99792695   -1.82887304   -0.70194203
 O         -2.42463303   -2.98381209    0.00571700
 C         -0.51442802   -1.85749304   -1.03533494
 O         -0.25404400   -2.97273302   -1.88124001
 C         -0.10184900   -0.55596799   -1.71754706
 C         -0.48594099    0.62505800   -0.82906997
 C         -0.14222600    1.97132397   -1.44729900
 O          0.07774700    2.97101808   -0.46259901
 O         -1.90009296    0.59752703   -0.58187503
 O          1.28511298   -0.57582903   -2.00826597
 O         -1.76324606   -0.70079100    1.36034596
 H          0.05037700    0.53654498    0.12113700
 H         -3.42501497   -0.45030501    0.17765000
 H          0.06247400   -1.95680499   -0.10544500
 H         -0.63148302   -0.47859699   -2.67475605
 C         -2.19454193    0.29638201    2.28388691
 H         -2.08171105   -2.90463805    0.90593702
 H          0.74496901    1.85318601   -2.07703805
 H         -0.97164398    2.29543710   -2.08174992
 H          1.78190303   -0.34970701   -1.18300104
 H          0.65394902   -2.86482191   -2.19369698
 H          0.93322599    2.72691298   -0.04014500
 H         -1.77227604    0.03482700    3.25376201
 H         -3.28822303    0.30876899    2.35016799
 H         -1.83788502    1.28610206    1.98573196
 H         -2.56716895   -1.80831802   -1.63482404
 O          2.69982195    0.03333300    0.19808400
 O          2.44357109    2.21741009    0.64840603
 C          4.05354118    1.00535405    1.90680599
 C          2.98008490    1.08996296    0.82662100
 H          4.55368805    0.03712600    1.89944398
 H          3.58601999    1.16106999    2.88309598
 H          4.78637600    1.80231798    1.76228297
