34
wb97x-d4 ma-def2-tzvp(-f) cpcm(dmso) E: -955.83430612631, G: -955.5986382
 C         -2.26520896   -0.75823301   -0.49204099
 C         -1.05775297   -1.65115595   -0.23762700
 O         -1.48855305   -2.93761992    0.18207701
 C         -0.12819199   -1.01264906    0.78761399
 O          0.97567600   -1.86526799    1.04082096
 C          0.28165999    0.37618899    0.30343801
 C         -0.97710103    1.19627404    0.00677000
 C         -0.64430100    2.54358411   -0.60338002
 O         -1.78767002    3.38846803   -0.72924799
 O         -1.81513703    0.50852799   -0.93081802
 O          1.05835903    1.04941702    1.27466094
 O         -3.03634095   -0.67894399    0.67333698
 H         -1.52630603    1.35200500    0.94468600
 H         -2.87275004   -1.14344895   -1.31952298
 H         -0.66896302   -0.90228498    1.73367500
 H          0.85342801    0.26986101   -0.62882298
 C         -4.26671314    0.01272500    0.47728199
 H         -0.69393700   -3.39215207    0.49270201
 H          0.12929100    3.02316308    0.00153500
 H         -0.25716901    2.39630294   -1.61469996
 H          2.00526404    0.81399000    1.10279202
 H          1.72584999   -1.64160705    0.42728400
 H         -2.07222104    3.63884091    0.15727100
 H         -4.83269405   -0.08017900    1.40390503
 H         -4.83344316   -0.43818900   -0.34551600
 H         -4.09487295    1.07062495    0.25897801
 H         -0.52134699   -1.73218703   -1.19248497
 O          3.59883499    0.44693699    0.68747598
 O          3.10076499   -1.39002097   -0.49047500
 C          5.29253483   -0.48352599   -0.71344298
 C          3.88505697   -0.46781400   -0.13255601
 H          5.28793001   -0.88640797   -1.72702801
 H          5.91245890   -1.13879097   -0.09377900
 H          5.73355818    0.51356602   -0.70485997
