34
wb97x-d4 ma-def2-tzvp(-f) cpcm(dmso) E: -955.832762079164, G: -955.59856252
 C         -2.37580109   -0.60926199   -0.57352000
 C         -1.15813696   -1.51719606   -0.73683202
 O         -1.51234305   -2.87068796   -0.49004400
 C          0.00575200   -1.05199695    0.13232601
 O          1.13601005   -1.84112895   -0.21575600
 C          0.26742199    0.44259101   -0.07184300
 C         -1.02478397    1.23315597    0.09375600
 C         -0.85419297    2.70024610   -0.24362500
 O         -2.05751801    3.43265605   -0.02285700
 O         -2.02767110    0.73795998   -0.80286402
 O          1.18930495    0.94798899    0.88010502
 O         -2.89534497   -0.82006299    0.71129602
 H         -1.37830806    1.13670599    1.12646103
 H         -3.13339305   -0.84329402   -1.32968998
 H         -0.25178099   -1.20640802    1.18979704
 H          0.64681298    0.58964902   -1.09361899
 C         -4.16830111   -0.20858900    0.90882099
 H         -1.92454100   -2.90158200    0.38332400
 H         -0.09266200    3.13732004    0.40130499
 H         -0.53022897    2.79618192   -1.28765500
 H          2.04255891    0.45750600    0.78618997
 H          1.94930696   -1.41585803    0.12982599
 H         -2.75226307    2.99584699   -0.53091002
 H         -4.87944221   -0.55320603    0.14997400
 H         -4.08974409    0.88129097    0.86369902
 H         -4.51365185   -0.50879699    1.89756203
 H         -0.84789199   -1.46833003   -1.78353500
 O          3.92970204    0.44030601   -1.18691897
 O          3.39998698   -0.58414602    0.72923702
 C          5.65865421   -0.72328597   -0.00092200
 C          4.22635698   -0.24010800   -0.18615900
 H          6.02651787   -0.41856900    0.98171198
 H          6.31455994   -0.33077800   -0.77775902
 H          5.67505407   -1.81612098   -0.03088500
