34
wb97x-d4 ma-def2-tzvp(-f) cpcm(dmso) E: -955.831983501158, G: -955.59835658
 C         -2.25662303   -0.62847602   -0.60659999
 C         -0.96664298   -1.42807996   -0.71315801
 O         -1.24619603   -2.80120802   -0.48075300
 C          0.09801900   -0.90312600    0.23923300
 O          1.26899505   -1.66051602   -0.03951900
 C          0.29596600    0.60141897    0.03648800
 C         -1.05466104    1.31472504    0.06944800
 C         -0.94490999    2.77636194   -0.31613600
 O         -2.19912791    3.44511008   -0.20680600
 O         -1.96882701    0.73194999   -0.86760002
 O          1.08449697    1.18944502    1.05943406
 O         -2.82394695   -0.82201999    0.65526497
 H         -1.46992898    1.23709798    1.08044100
 H         -2.96284699   -0.92537898   -1.39050400
 H         -0.22650699   -1.07114196    1.27459502
 H          0.76159102    0.75620002   -0.94813597
 C         -4.11972713   -0.23944201    0.77496600
 H         -0.40005901   -3.26438999   -0.51886302
 H         -0.25478899    3.28088093    0.35962099
 H         -0.55593401    2.85129690   -1.33945799
 H          1.93961596    0.70506901    1.13708901
 H          2.03425503   -1.28540301    0.45708901
 H         -2.83282399    2.94887900   -0.73935199
 H         -4.78081703   -0.60927701   -0.01693300
 H         -4.06804705    0.85189497    0.72124201
 H         -4.51131487   -0.53806299    1.74697602
 H         -0.60048097   -1.29095900   -1.73840404
 O          4.93986511    1.01589894    0.52507800
 O          3.28251791   -0.35016200    1.13596702
 C          4.94550705   -1.23020399   -0.31831601
 C          4.36121988   -0.08619200    0.50125599
 H          5.82483816   -0.91115499   -0.87741101
 H          4.18799400   -1.61145401   -1.00775695
 H          5.21932983   -2.04958105    0.35152000
