34
wb97x-d4 ma-def2-tzvp(-f) cpcm(dmso) E: -955.83250732528, G: -955.59827272
 C         -2.22679591   -0.61484498   -0.08638900
 C         -1.24192595   -1.54049397   -0.78809702
 O         -1.36216199   -2.85397911   -0.26411200
 C          0.18173900   -1.01834500   -0.66373402
 O          1.00172806   -1.90738106   -1.41196096
 C          0.25576600    0.41970101   -1.17666101
 C         -0.82068300    1.26827097   -0.49993601
 C         -0.92414701    2.65300202   -1.10569406
 O         -1.86817598    3.46550012   -0.41154400
 O         -2.11722302    0.67617100   -0.65457100
 O          1.50600696    1.03637898   -0.90565902
 O         -1.97030795   -0.61855698    1.28807402
 H         -0.58150899    1.35523105    0.56564701
 H         -3.25989008   -0.92501700   -0.28007799
 H          0.48113900   -1.03225005    0.39196301
 H          0.06935600    0.40133899   -2.26047707
 C         -2.93471789    0.11795600    2.03669310
 H         -0.61118102   -3.35280299   -0.61233503
 H          0.04098600    3.15413690   -1.03375196
 H         -1.19773102    2.56383991   -2.16448212
 H          2.21535110    0.35594201   -0.85584998
 H          1.93872297   -1.72464299   -1.16277397
 H         -2.70731497    2.98847795   -0.41072401
 H         -3.94653201   -0.24274500    1.82000101
 H         -2.87748003    1.18680894    1.81229401
 H         -2.70700192   -0.04502900    3.08959007
 H         -1.51605701   -1.53607297   -1.85089099
 O          3.85670710   -2.44279695    0.94706601
 O          3.34904194   -0.93586701   -0.62175202
 C          4.01042891   -0.11726600    1.51327598
 C          3.72076297   -1.26769698    0.55734497
 H          4.25886679   -0.48162901    2.50957394
 H          3.14042711    0.54152000    1.56633604
 H          4.84381104    0.47313899    1.12361300
