34
wb97x-d4 ma-def2-tzvp(-f) cpcm(dmso) E: -955.831831971121, G: -955.59817096
 C         -1.55459595   -0.40338001   -0.66549999
 C         -0.04202800   -0.55257499   -0.49831700
 O          0.25821799   -1.92747498   -0.35574999
 C          0.43923101    0.28682300    0.68447000
 O          1.85689795    0.35016501    0.77135700
 C         -0.04405700    1.72316206    0.53947002
 C         -1.55099404    1.76269102    0.33135301
 C         -2.06014490    3.15897703    0.03263800
 O         -3.47605610    3.17804408   -0.12417600
 O         -1.88971603    0.96544498   -0.80845600
 O          0.27183801    2.48552299    1.70017004
 O         -2.20099401   -0.99254102    0.42562300
 H         -2.05703712    1.37151098    1.22080302
 H         -1.88432395   -0.87384200   -1.59917605
 H          0.02303400   -0.13381501    1.60930598
 H          0.44422099    2.16235900   -0.34140599
 C         -3.61760902   -1.03213298    0.27625501
 H          1.23055100   -2.02885199   -0.22990800
 H         -1.82125199    3.82222605    0.86417699
 H         -1.56635904    3.53630900   -0.87170899
 H          1.20836997    2.33845592    1.88323104
 H          2.24058294   -0.54558200    0.64212102
 H         -3.69342995    2.54014611   -0.81514102
 H         -4.04861784   -0.02756000    0.32096800
 H         -4.00675488   -1.63039303    1.09986997
 H         -3.89007092   -1.49931300   -0.67718601
 H          0.41634101   -0.15071499   -1.41182995
 O          3.46303105   -1.56490898   -1.78954005
 O          2.89113402   -2.13007402    0.29576701
 C          5.00563812   -2.87152100   -0.50049299
 C          3.69393396   -2.12546611   -0.70096803
 H          5.66726112   -2.74959397   -1.35780299
 H          4.79365396   -3.93400502   -0.35363400
 H          5.50010300   -2.50809407    0.40341300
