34
wb97x-d4 ma-def2-tzvp(-f) cpcm(dmso) E: -955.831650257324, G: -955.59801987
 C         -2.54065800   -0.66545302   -0.33530900
 C         -1.43076503   -1.58624101   -0.81986701
 O         -1.69006503   -2.91278696   -0.38405001
 C         -0.06162800   -1.10564494   -0.36015001
 O          0.87054902   -1.98867404   -0.97151101
 C          0.13138001    0.35692599   -0.76091200
 C         -1.06649995    1.19726801   -0.31063601
 C         -1.00997806    2.62644792   -0.83757198
 O          0.03922500    3.37990808   -0.23813300
 O         -2.28634310    0.64515501   -0.80896503
 O          1.27907395    0.94467902   -0.15821500
 O         -2.61946392   -0.72216499    1.05821204
 H         -1.08760297    1.22086000    0.78488803
 H         -3.50122094   -0.94575202   -0.78281999
 H          0.00387000   -1.17960000    0.73321700
 H          0.20649700    0.40740699   -1.85671401
 C         -3.73353100   -0.00301600    1.58266497
 H         -0.91758502   -3.43651605   -0.63228297
 H         -0.90168601    2.60512805   -1.92996097
 H         -1.94991100    3.12778807   -0.59613699
 H          2.07519698    0.36679599   -0.29001600
 H          1.79078698   -1.68870103   -0.78767902
 H          0.81155300    2.79225302   -0.20694201
 H         -4.66225576   -0.33202401    1.10289299
 H         -3.61313105    1.07404602    1.43531096
 H         -3.77601790   -0.22194999    2.64923191
 H         -1.45120800   -1.54447198   -1.91627002
 O          3.20851302   -0.82797402   -0.43864101
 O          4.64000416   -2.16902208    0.62741899
 C          4.68298721    0.17431900    1.13419998
 C          4.15054893   -1.04845595    0.39915100
 H          3.86408710    0.66739899    1.66468406
 H          5.07961512    0.88954699    0.40899900
 H          5.46565914   -0.09747900    1.84191203
