34
wb97x-d4 ma-def2-tzvp(-f) cpcm(dmso) E: -955.832715519833, G: -955.5978102299999
 C         -2.41181302   -0.62694103   -0.34732699
 C         -1.26592803   -1.51028395   -0.83785301
 O         -1.44965506   -2.84587789   -0.39085501
 C          0.09308600   -0.94174498   -0.43536800
 O          1.08366001   -1.72297394   -1.08308101
 C          0.18446299    0.53600901   -0.82705200
 C         -1.02128506    1.29854095   -0.28841799
 C         -1.05035806    2.74186110   -0.74989498
 O         -2.15405107    3.44775009   -0.18793701
 O         -2.23338008    0.70660299   -0.76763701
 O          1.34174597    1.16327500   -0.29561400
 O         -2.47234511   -0.75036401    1.04823005
 H         -1.00634694    1.26949894    0.80676401
 H         -3.36003494   -0.94689101   -0.79381597
 H          0.20371000   -1.01179600    0.65590501
 H          0.18191300    0.59901202   -1.92541301
 C         -3.63639498   -0.15196800    1.61405396
 H         -1.58233702   -2.80716109    0.56561899
 H         -0.14430000    3.24869609   -0.41929400
 H         -1.09129596    2.77014804   -1.84614801
 H          2.11768389    0.57179999   -0.40730500
 H          1.97213101   -1.34708297   -0.88393801
 H         -2.95234299    2.95852995   -0.42247301
 H         -3.61849403    0.93413699    1.48745799
 H         -3.63426900   -0.39508799    2.67617512
 H         -4.53999186   -0.55765098    1.14556205
 H         -1.31493795   -1.54123497   -1.92923999
 O          3.30432391   -1.20557797    1.62068605
 O          3.47143793   -0.54497600   -0.50952500
 C          5.47649002   -0.66594398    0.76145101
 C          3.96701193   -0.82791400    0.63549602
 H          5.83127308   -0.99728203    1.73728096
 H          5.73491907    0.38705301    0.62030202
 H          5.97570992   -1.23416197   -0.02679300
