34
wb97x-d4 ma-def2-tzvp(-f) cpcm(dmso) E: -955.832190716193, G: -955.5977726
 C         -2.27870703   -0.55348599    0.19124199
 C         -1.98728800   -1.75246298   -0.70756400
 O         -2.39322901   -2.94149494   -0.04512300
 C         -0.51678002   -1.77332699   -1.08275294
 O         -0.31754199   -2.86585093   -1.97683501
 C         -0.11970900   -0.44753301   -1.72303498
 C         -0.49924499    0.69890398   -0.78546298
 C         -0.21345399    2.06823397   -1.38380206
 O          0.06312200    3.04283404   -0.38710201
 O         -1.89840496    0.63578802   -0.47032601
 O          1.26399696   -0.43853000   -2.02606010
 O         -1.61255705   -0.72519398    1.40934503
 H          0.08347100    0.59721899    0.13547599
 H         -3.35719895   -0.45446101    0.36183599
 H          0.08580700   -1.92199504   -0.17805800
 H         -0.66128099   -0.34041199   -2.67070603
 C         -1.95271504    0.27143401    2.37005997
 H         -2.19127989   -3.67684293   -0.63636398
 H          0.62868297    1.98243797   -2.07770610
 H         -1.08918595    2.40117407   -1.94719601
 H          1.76804698   -0.23920099   -1.19525898
 H          0.60785699   -2.83816695   -2.25033998
 H          0.92809302    2.77671909   -0.00516400
 H         -3.03842211    0.30772400    2.51652598
 H         -1.59727299    1.25774205    2.05905795
 H         -1.46792400   -0.01094900    3.30436707
 H         -2.57729602   -1.61221194   -1.62201202
 O          2.42862797    2.15982509    0.67172301
 O          2.70097303   -0.01781000    0.20070501
 C          3.88270092    0.87575102    2.06052208
 C          2.91776109    1.01929998    0.88824803
 H          3.77221107   -0.10180100    2.53226399
 H          3.73359609    1.66838896    2.79420495
 H          4.90454578    0.94825602    1.67528999
