34
wb97x-d4 ma-def2-tzvp(-f) cpcm(dmso) E: -955.836939113878, G: -955.60187163
 C         -2.43534303   -0.65576899   -0.39228699
 C         -1.23752999   -1.55220401   -0.70134598
 O         -1.48548400   -2.87630010   -0.24859600
 C          0.05534200   -0.96980602   -0.13545799
 O          1.13204896   -1.74449694   -0.62752199
 C          0.20550901    0.50265801   -0.53320301
 C         -1.06396699    1.27891195   -0.20046601
 C         -1.02867901    2.70318389   -0.71675199
 O         -2.20169401    3.42460108   -0.34554601
 O         -2.19781208    0.66444200   -0.82534099
 O          1.27239597    1.12318695    0.15885700
 O         -2.67937112   -0.73535800    0.98706800
 H         -1.20760798    1.29158902    0.88583899
 H         -3.31864500   -0.98872203   -0.94872999
 H          0.01691100   -1.01993597    0.96181202
 H          0.36968401    0.54490101   -1.61996198
 C         -3.90570498   -0.12113800    1.37725103
 H         -1.73174298   -2.81467009    0.68368399
 H         -0.17917600    3.22834206   -0.28200799
 H         -0.91443801    2.68889904   -1.80811405
 H          2.14206004    0.75300699   -0.13833800
 H          1.94412899   -1.57583106   -0.08600100
 H         -2.95843601    2.91819406   -0.66581398
 H         -3.86530709    0.96201301    1.23169303
 H         -4.04852915   -0.34036499    2.43488789
 H         -4.74054623   -0.53413099    0.80011499
 H         -1.14206803   -1.61342800   -1.78861105
 O          3.44244194   -1.49169195    0.69172001
 O          3.76712108    0.38725299   -0.47210601
 C          5.67945004   -0.69742799    0.46600401
 C          4.18448591   -0.59637398    0.20015299
 H          5.99520683   -1.74078906    0.50406200
 H          5.88502216   -0.24674200    1.44180501
 H          6.25027418   -0.15600400   -0.28875199
