34
wb97x-d4 ma-def2-tzvp(-f) cpcm(dmso) E: -955.832573310824, G: -955.5976970199999
 C         -2.03801703   -0.73419899   -0.28821799
 C         -0.84569299   -1.34491599   -1.01261497
 O         -0.72655398   -2.71777201   -0.67160702
 C          0.42919901   -0.58119398   -0.69077700
 O          1.47027099   -1.18251801   -1.44805098
 C          0.24332100    0.89878398   -1.02066600
 C         -1.02264202    1.42622995   -0.34390500
 C         -1.36688602    2.83316398   -0.78923601
 O         -2.49505901    3.35105300   -0.08722900
 O         -2.16047692    0.62019098   -0.68098402
 O          1.32682097    1.70388997   -0.57618999
 O         -1.86303997   -0.87764299    1.09159899
 H         -0.87314999    1.41421902    0.74131900
 H         -2.97418904   -1.20823097   -0.60371703
 H          0.64415002   -0.67793298    0.38094401
 H          0.13080300    0.99133301   -2.11059999
 C         -2.99824500   -0.46219999    1.84745598
 H          0.12857200   -3.00605512   -1.01788104
 H         -0.52899802    3.49742293   -0.57891399
 H         -1.55323398    2.83236194   -1.87039697
 H          2.14574504    1.16897905   -0.50465697
 H          2.32589102   -0.87617600   -1.05374205
 H         -3.22561002    2.73620605   -0.22764300
 H         -2.80736494   -0.74417299    2.88242888
 H         -3.90364599   -0.96612602    1.49118602
 H         -3.13987708    0.62049502    1.78473103
 H         -1.04821599   -1.24263299   -2.08635807
 O          4.42759800    0.57420802    1.63339102
 O          3.51724410    0.05704700   -0.33925301
 C          3.75712204   -1.69588697    1.25861299
 C          3.92478991   -0.24070799    0.83745199
 H          4.25140095   -1.89369798    2.20910311
 H          4.15788078   -2.35772300    0.48765001
 H          2.69009209   -1.91579795    1.35676706
