34
wb97x-d4 ma-def2-tzvp(-f) cpcm(dmso) E: -955.831744836865, G: -955.5976878
 C         -1.56919706   -0.43215099   -0.63996500
 C         -0.04810700   -0.54791099   -0.52561003
 O          0.28313801   -1.91501796   -0.37138200
 C          0.45803100    0.32883701    0.61936301
 O          1.87579298    0.41567200    0.65959400
 C         -0.05228300    1.75309396    0.44528800
 C         -1.56655800    1.76445901    0.29436201
 C         -2.11094499    3.14173794   -0.02851000
 O         -3.53357196    3.13761497   -0.11413300
 O         -1.93843901    0.92467499   -0.80491400
 O          0.29592100    2.55884504    1.56681502
 O         -2.16406894   -1.00508106    0.48982200
 H         -2.03038406    1.39711499    1.21645701
 H         -1.92325699   -0.93481100   -1.54719901
 H          0.07555300   -0.07001800    1.56784594
 H          0.39515299    2.16772294   -0.46847999
 C         -3.58460999   -1.07505798    0.39696500
 H          1.25116801   -2.00121808   -0.21608800
 H         -1.84089601    3.83753991    0.76565498
 H         -1.66735995    3.49221110   -0.96887302
 H          1.24018705    2.42694211    1.72118998
 H          2.26586103   -0.48610899    0.58661598
 H         -3.77728796    2.47604609   -0.77359998
 H         -3.88561702   -1.55787802   -0.53967100
 H         -4.03567791   -0.07994100    0.44873700
 H         -3.92785501   -1.67266405    1.24100900
 H          0.36626300   -0.15598200   -1.46402097
 O          2.91987491   -2.07480693    0.34975299
 O          3.56277108   -1.47087705   -1.70541000
 C          5.00509310   -2.90628600   -0.43861601
 C          3.74064994   -2.07997108   -0.63263798
 H          4.73131180   -3.96023107   -0.34194300
 H          5.49974012   -2.61016989    0.48922300
 H          5.68960190   -2.78633094   -1.27764106
