34
wb97x-d4 ma-def2-tzvp(-f) cpcm(dmso) E: -955.832591418292, G: -955.5976778099999
 C         -2.28133011   -0.61236000   -0.13566700
 C         -1.27649999   -1.53453302   -0.81361300
 O         -1.41824305   -2.85205293   -0.30636799
 C          0.14567800   -1.02039301   -0.63727999
 O          0.98474097   -1.90404999   -1.36737204
 C          0.24039701    0.42336100   -1.13047302
 C         -0.85308200    1.26474297   -0.47265801
 C         -0.92707700    2.66479206   -1.04856503
 O         -1.89607298    3.46024609   -0.37023100
 O         -2.14518595    0.68436599   -0.68645900
 O          1.48298097    1.03501499   -0.81804401
 O         -2.07408190   -0.63243997    1.24608302
 H         -0.65199202    1.32505405    0.60256398
 H         -3.30860996   -0.91524100   -0.36958301
 H          0.40910700   -1.04681098    0.42805600
 H          0.08255200    0.41983601   -2.21910191
 C         -3.05925107    0.10698500    1.96398902
 H         -0.66405803   -3.35219598   -0.64554000
 H          0.03603900    3.16047096   -0.92770600
 H         -1.16048205    2.60278702   -2.11911607
 H          2.19299793    0.35729501   -0.76212198
 H          1.91432905   -1.73001695   -1.08020198
 H         -2.73019695    2.97550511   -0.40047199
 H         -2.87499189   -0.06606300    3.02394390
 H         -4.06530380   -0.24209499    1.70473695
 H         -2.98252106    1.17701805    1.75055099
 H         -1.51461303   -1.51901197   -1.88506603
 O          3.31751800   -0.95255500   -0.55585098
 O          3.74094605   -2.42053008    1.07283795
 C          4.29830599   -0.11836000    1.44455194
 C          3.74852204   -1.26591206    0.60764098
 H          5.13620996    0.34563801    0.91807503
 H          4.62849283   -0.46310201    2.42416191
 H          3.52477694    0.64460999    1.56429696
