34
wb97x-d4 ma-def2-tzvp(-f) cpcm(dmso) E: -955.832753304923, G: -955.59764268
 C         -2.14636898   -0.66225803   -0.41471699
 C         -0.94536501   -1.39022398   -1.01285601
 O         -1.01771605   -2.77891803   -0.72034800
 C          0.36858001   -0.76675999   -0.55415499
 O          1.40854096   -1.38616705   -1.29626095
 C          0.34119001    0.74880499   -0.76725799
 C         -0.91497499    1.35667300   -0.15111201
 C         -1.07507801    2.83764911   -0.43877801
 O         -1.14135802    3.12534809   -1.83321095
 O         -2.08549809    0.72055697   -0.67764598
 O          1.44517601    1.39696801   -0.15108100
 O         -2.16473293   -0.94628602    0.95871103
 H         -0.87671900    1.22378600    0.93638301
 H         -3.07587194   -1.00433099   -0.88308001
 H          0.50068599   -0.96068299    0.51981002
 H          0.33683500    0.94127899   -1.84830797
 C         -3.36934710   -0.53796500    1.60306203
 H         -1.14396298   -2.85856199    0.23444900
 H         -1.97741103    3.19640493    0.06960500
 H         -0.21384500    3.37718511   -0.04468700
 H          2.27337193    0.90968698   -0.35698000
 H          2.25997400   -0.94081300   -1.08572602
 H         -1.88947403    2.63491511   -2.19438505
 H         -3.46100593    0.55185699    1.60587299
 H         -3.31892204   -0.90240097    2.62861395
 H         -4.23877811   -0.97469097    1.09951699
 H         -1.00881696   -1.30193901   -2.10035110
 O          5.60026407   -0.52968001    0.39647499
 O          3.69876695   -0.06294700   -0.67591703
 C          3.53242993   -1.02996302    1.49882603
 C          4.35733414   -0.50257999    0.32985699
 H          2.95562601   -1.89857197    1.16914105
 H          2.81739902   -0.26954600    1.82098198
 H          4.16906977   -1.31582797    2.33555198
