34
wb97x-d4 ma-def2-tzvp(-f) cpcm(dmso) E: -955.832432619362, G: -955.5976104399999
 C         -2.50497007   -0.73556399   -0.51573199
 C         -1.26056004   -1.56770504   -0.82111400
 O         -1.45972502   -2.91938496   -0.43299100
 C         -0.01448200   -0.95078200   -0.19256601
 O          1.10838604   -1.68016005   -0.66555798
 C          0.06877100    0.52952498   -0.56499100
 C         -1.23429596    1.25102794   -0.23081800
 C         -1.23774302    2.69937205   -0.70678902
 O         -0.36419699    3.51766396    0.06376500
 O         -2.32491302    0.61127800   -0.89728701
 O          1.10895503    1.19751704    0.14188400
 O         -2.77678704   -0.87358201    0.85314298
 H         -1.39228296    1.23059797    0.85343599
 H         -3.35688090   -1.08930004   -1.10640299
 H         -0.08382700   -1.02605999    0.90170199
 H          0.23700900    0.60333502   -1.64893794
 C         -4.03738785   -0.32887501    1.23733103
 H         -1.70862997   -2.91520309    0.50070298
 H         -0.96780998    2.73124194   -1.77046299
 H         -2.24568295    3.10484505   -0.59687400
 H          1.97250402    0.75129402   -0.04480300
 H          1.92874205   -1.17677701   -0.47109801
 H          0.46690699    3.02233100    0.14220500
 H         -4.83710814   -0.73252702    0.60662103
 H         -4.03272200    0.76201898    1.16169405
 H         -4.20600796   -0.62098402    2.27324390
 H         -1.12751496   -1.57899404   -1.90570796
 O          3.55081511   -0.69410300    1.79957998
 O          3.37444496   -0.15737601   -0.36514199
 C          5.55119181   -0.60262501    0.48091501
 C          4.04629803   -0.47991800    0.67689800
 H          6.04970407   -0.89980298    1.40325201
 H          5.95246077    0.35570100    0.14161400
 H          5.75733805   -1.33802402   -0.30071300
