34
wb97x-d4 ma-def2-tzvp(-f) cpcm(dmso) E: -955.83225954491, G: -955.59758182
 C         -1.37069094   -0.59630299   -0.68593597
 C         -0.01948500   -0.42816600   -1.38347101
 O          0.58960199   -1.69372106   -1.55971706
 C          0.83428901    0.55753797   -0.59144300
 O          2.06082702    0.86008501   -1.24418294
 C          0.07515600    1.86419106   -0.43204799
 C         -1.28907895    1.62064099    0.20104100
 C         -2.15763998    2.86355400    0.26400000
 O         -2.41954303    3.41843700   -1.02149796
 O         -2.01664901    0.66110200   -0.57424003
 O          0.79613203    2.76477599    0.40260699
 O         -1.16761601   -1.19282305    0.56163001
 H         -1.14868402    1.24925900    1.22296202
 H         -2.04838991   -1.20652997   -1.29419899
 H          1.03726697    0.14264999    0.40347400
 H         -0.06719500    2.30774808   -1.42509198
 C         -2.38096189   -1.56690705    1.20772398
 H          1.53153706   -1.64567101   -1.28373396
 H         -3.09545493    2.60973501    0.77136099
 H         -1.64583194    3.63296509    0.84331697
 H          1.71391499    2.73687100    0.10167000
 H          2.67089605    0.10935500   -1.06061602
 H         -2.85311699    2.73543310   -1.54725695
 H         -2.98167610   -2.20868897    0.55324000
 H         -2.96812201   -0.68725997    1.48734903
 H         -2.10364890   -2.11874795    2.10561109
 H         -0.22863600    0.01508300   -2.36594009
 O          3.99493194   -0.94166100    1.32638001
 O          3.16278410   -1.51229894   -0.66687000
 C          2.66879892   -2.93277407    1.17760706
 C          3.33538103   -1.69707596    0.58769798
 H          1.58775604   -2.86573696    1.03154302
 H          2.88704300   -3.03251004    2.24060893
 H          3.01610589   -3.82254910    0.64642298
