34
wb97x-d4 ma-def2-tzvp(-f) cpcm(dmso) E: -955.837380769019, G: -955.6018180799999
 C         -2.50722909   -0.72303301   -0.53870398
 C         -1.26586497   -1.57695794   -0.79256898
 O         -1.51038504   -2.92255712   -0.40600801
 C         -0.03422800   -0.98296100   -0.11485700
 O          1.09595704   -1.71019995   -0.55593002
 C          0.08815800    0.50045002   -0.46448100
 C         -1.21739602    1.24219000   -0.18862200
 C         -1.17974496    2.68996191   -0.66365403
 O         -0.29044801    3.48274493    0.11632700
 O         -2.28964090    0.62215000   -0.90301800
 O          1.10271204    1.13507605    0.30152500
 O         -2.84014511   -0.86436403    0.81675100
 H         -1.42491198    1.22300398    0.88764399
 H         -3.33955193   -1.05816400   -1.16728902
 H         -0.14717500   -1.06952596    0.97493100
 H          0.31378001    0.58159697   -1.53728902
 C         -4.11717415   -0.32032600    1.14341104
 H         -1.84158397   -2.89933491    0.50146002
 H         -0.89665902    2.71380091   -1.72441494
 H         -2.17841101    3.12203908   -0.56612098
 H          2.01074600    0.84185302    0.00739800
 H          1.88274503   -1.49923897    0.00778700
 H          0.49640000    2.92883992    0.25924799
 H         -4.89051819   -0.74463397    0.49355701
 H         -4.11621809    0.76862299    1.04263794
 H         -4.32056189   -0.58988303    2.17929101
 H         -1.09014201   -1.59606397   -1.87141097
 O          3.60341907    0.58312702   -0.30010399
 O          3.37617493   -1.35160506    0.79217100
 C          5.58375597   -0.50272799    0.47360700
 C          4.07352400   -0.41358301    0.31862801
 H          5.98677301   -1.03423095   -0.39397100
 H          5.84962320   -1.06595802    1.36875498
 H          6.03422213    0.48989099    0.50331300
