34
wb97x-d4 ma-def2-tzvp(-f) cpcm(dmso) E: -955.832164387364, G: -955.59733269
 C         -2.48613501   -0.70604199   -0.39840201
 C         -1.36781895   -1.66113806   -0.80803299
 O         -1.62713504   -2.96669006   -0.31159201
 C          0.00571900   -1.14248502   -0.38585201
 O          0.96447903   -1.99440300   -0.99543101
 C          0.16881999    0.31970701   -0.81057602
 C         -1.02886701    1.15802395   -0.36671799
 C         -0.96971798    2.58748198   -0.89450902
 O          0.05489800    3.35015798   -0.26780900
 O         -2.23777509    0.59716201   -0.87706202
 O          1.31697404    0.92786700   -0.23114200
 O         -2.59292698   -0.75615603    0.99909800
 H         -1.06034195    1.18446898    0.72845203
 H         -3.43409395   -1.00665605   -0.85893703
 H          0.09010600   -1.19218397    0.70888299
 H          0.23026900    0.35298499   -1.90811801
 C         -3.73841405   -0.06965900    1.49912703
 H         -1.80332994   -2.87792301    0.63444698
 H         -0.83218497    2.56598496   -1.98373199
 H         -1.92079306    3.07972908   -0.67891800
 H          2.12501502    0.37830001   -0.40087101
 H          1.86958396   -1.64335895   -0.85041201
 H          0.83861798    2.77771401   -0.24351400
 H         -4.64794683   -0.44097999    1.01388705
 H         -3.65211201    1.00770903    1.33251095
 H         -3.78711009   -0.26959899    2.56910801
 H         -1.38226402   -1.73711097   -1.89821899
 O          4.76981592   -2.04606605    0.53512299
 O          3.32867789   -0.74332398   -0.56464303
 C          4.58570004    0.24972300    1.19531095
 C          4.21141720   -0.95201403    0.33770099
 H          5.28172779   -0.02929600    1.98597002
 H          3.68372393    0.68417799    1.63333905
 H          5.04342508    1.01389503    0.56152898
