34
wb97x-d4 ma-def2-tzvp(-f) cpcm(dmso) E: -955.832131054176, G: -955.59724935
 C         -2.47580600   -0.73105103   -0.39715600
 C         -1.35074997   -1.68621194   -0.78764302
 O         -1.60017395   -2.98341203   -0.26510301
 C          0.01894100   -1.14884603   -0.37691900
 O          0.98478103   -2.00543308   -0.96881199
 C          0.17137000    0.30495101   -0.83279401
 C         -1.03229904    1.14434695   -0.40722600
 C         -0.98320198    2.56189394   -0.96732801
 O          0.03522300    3.34611702   -0.35747200
 O         -2.23737407    0.56344903   -0.90414703
 O          1.31554997    0.93381298   -0.26767299
 O         -2.58082390   -0.75155199    1.00128102
 H         -1.06322300    1.19526994    0.68707103
 H         -3.42167211   -1.04875195   -0.85026503
 H          0.10369800   -1.17494702    0.71860403
 H          0.23187700    0.31429100   -1.93088996
 C         -3.73256707   -0.06525400    1.48744905
 H         -1.77052498   -2.87872696    0.68032402
 H         -0.84435803    2.51623297   -2.05564809
 H         -1.93816698    3.05185008   -0.76419097
 H          2.12507701    0.37790900   -0.40674800
 H          1.88674605   -1.65006101   -0.81719100
 H          0.82354802    2.78086305   -0.32044500
 H         -3.65756106    1.00881195    1.29588997
 H         -3.77771306   -0.24104901    2.56178689
 H         -4.63900280   -0.45671800    1.01237905
 H         -1.36517000   -1.78425801   -1.87608898
 O          4.78630877   -1.99735606    0.63406301
 O          3.33829188   -0.74102098   -0.50925201
 C          4.55196190    0.30679199    1.24910295
 C          4.21120024   -0.91706997    0.40930399
 H          5.02394676    1.05809104    0.61030799
 H          5.22676992    0.05128200    2.06567597
 H          3.63509798    0.74575400    1.64975202
