34
wb97x-d4 ma-def2-tzvp(-f) cpcm(dmso) E: -955.832088014407, G: -955.59714765
 C         -1.45001996   -0.63340598   -0.42915800
 C         -0.09556400   -0.69780701   -1.13860703
 O          0.46681300   -1.97792494   -0.92692298
 C          0.78736401    0.45724699   -0.66763502
 O          1.98951805    0.56693703   -1.41768098
 C          0.04544800    1.77410495   -0.85390902
 C         -1.32174003    1.73271406   -0.18618700
 C         -2.15251899    2.96236992   -0.49714401
 O         -3.41343188    2.92531300    0.16480900
 O         -2.06450510    0.61658698   -0.68643802
 O          0.78493702    2.85431695   -0.29584199
 O         -1.26679003   -0.86025202    0.93827897
 H         -1.19819701    1.64001203    0.89849800
 H         -2.13853908   -1.37742996   -0.84701002
 H          1.01910400    0.32662299    0.39697301
 H         -0.09525500    1.93403196   -1.93221200
 C         -2.49567294   -0.96567702    1.65186596
 H          1.44703496   -1.91632795   -0.86542201
 H         -1.63248205    3.85407209   -0.14600900
 H         -2.28959608    3.03920388   -1.58310902
 H          1.69800997    2.74034691   -0.59073502
 H          2.58362508   -0.17101701   -1.14398396
 H         -3.84518409    2.10152292   -0.09313300
 H         -2.24576592   -1.25266802    2.67311406
 H         -3.13627291   -1.73268998    1.20158899
 H         -3.02975512   -0.01102300    1.66292799
 H         -0.29718700   -0.54905200   -2.20815611
 O          4.51095295   -1.06299400    1.01501405
 O          3.14900398   -1.69454706   -0.63885301
 C          3.12026095   -2.98667097    1.35827196
 C          3.64948511   -1.82135403    0.53220803
 H          3.68558407   -3.10945511    2.28184104
 H          3.16076803   -3.90695500    0.77156800
 H          2.07056689   -2.79814911    1.60118699
