34
wb97x-d4 ma-def2-tzvp(-f) cpcm(dmso) E: -955.832612423569, G: -955.59710823
 C         -2.26896405   -0.60475600   -0.56901097
 C         -1.16018796   -1.65408301   -0.54816198
 O         -1.68979502   -2.92574096   -0.20060401
 C         -0.00560200   -1.23689795    0.36023000
 O          1.02980602   -2.19175196    0.16958100
 C          0.44516799    0.19293199    0.04009900
 C         -0.75782198    1.13177204    0.02037500
 C         -0.39566299    2.53056097   -0.43732101
 O         -1.51819098    3.40748906   -0.38223901
 O         -1.74793696    0.66193402   -0.90100700
 O          1.33976102    0.69860202    1.01676905
 O         -2.89241505   -0.62063998    0.68740600
 H         -1.18874502    1.18113101    1.02656400
 H         -2.99913692   -0.83254999   -1.35362697
 H         -0.34701601   -1.25186300    1.40488994
 H          0.91575599    0.19393399   -0.95438600
 C         -4.08249187    0.16433901    0.72983003
 H         -2.19005203   -2.80924511    0.61799902
 H          0.36590499    2.94482803    0.22207899
 H          0.00683700    2.48348999   -1.45709801
 H          2.15805006    0.14182800    1.02296603
 H          1.87371397   -1.86014998    0.54029399
 H         -2.22348189    2.99839997   -0.89889199
 H         -4.78127480   -0.15865199   -0.04985000
 H         -3.85477495    1.22548997    0.59552997
 H         -4.53128576    0.00966600    1.71053898
 H         -0.77705997   -1.74912095   -1.56727695
 O          3.34363198   -1.03819299    1.10189402
 O          4.96290493   -2.06904888   -0.03862100
 C          4.62039995    0.27232200   -0.42214501
 C          4.30293798   -1.05524397    0.25412899
 H          4.85286379    1.02339900    0.33679500
 H          3.73653889    0.61920398   -0.96480501
 H          5.45762587    0.17661600   -1.11292195
