34
wb97x-d4 ma-def2-tzvp(-f) cpcm(dmso) E: -955.837484657839, G: -955.60174263
 C         -1.69077396   -0.60663098   -0.42765799
 C         -0.41950300   -0.72093898   -1.27587903
 O          0.10149600   -2.03099799   -1.26953602
 C          0.59024799    0.32699999   -0.81283301
 O          1.76089704    0.33774400   -1.60952997
 C         -0.05364400    1.70298100   -0.88527501
 C         -1.32737303    1.72537100   -0.04799800
 C         -2.09090900    3.03483605   -0.13031600
 O         -2.50020194    3.35085297   -1.45750403
 O         -2.22159505    0.70666200   -0.50791299
 O          0.83187002    2.69883394   -0.38543001
 O         -1.38498604   -0.97125101    0.88874298
 H         -1.06455803    1.54977298    1.00213099
 H         -2.48046303   -1.25509906   -0.82435900
 H          0.86134201    0.12529799    0.22999300
 H         -0.30849001    1.91797698   -1.93085802
 C         -2.53317094   -1.05953205    1.72667503
 H          0.71985197   -2.13447309   -0.50362301
 H         -2.95931911    2.97545791    0.53592598
 H         -1.44806898    3.84836888    0.20770399
 H          1.69881594    2.49431396   -0.76138699
 H          2.39842510   -0.29627201   -1.19172597
 H         -3.03038311    2.61099505   -1.77811801
 H         -2.98936200   -0.07672100    1.87635601
 H         -2.19745708   -1.45286798    2.68603206
 H         -3.27528095   -1.73919797    1.29208195
 H         -0.71082199   -0.48940799   -2.30623507
 O          1.88693500   -2.43459105    0.70370799
 O          3.48240709   -1.27035201   -0.35376599
 C          4.12685490   -2.61359811    1.50615799
 C          3.08291602   -2.07185006    0.53703398
 H          3.81304502   -3.56991792    1.92549801
 H          4.23561478   -1.89739704    2.32633495
 H          5.09564209   -2.71536493    1.01557004
