34
wb97x-d4 ma-def2-tzvp(-f) cpcm(dmso) E: -955.831796526824, G: -955.59695159
 C         -2.23242593   -0.65467101    0.09522900
 C         -1.85026503   -1.74897397   -0.89544803
 O         -2.19390512   -3.01536894   -0.35009500
 C         -0.37625200   -1.64174604   -1.23309398
 O         -0.09273800   -2.62311292   -2.22877693
 C         -0.04134100   -0.23967800   -1.73777103
 C         -0.50960201    0.80094200   -0.71691501
 C         -0.40090299    2.25372910   -1.17663205
 O          0.92791301    2.72463703   -1.27921700
 O         -1.90916598    0.60741901   -0.45264599
 O          1.34087706   -0.16200501   -2.03558803
 O         -1.58398294   -0.89118099    1.31236899
 H          0.05821200    0.67769903    0.21167099
 H         -3.31788492   -0.62934399    0.24490800
 H          0.21839400   -1.84569597   -0.33399200
 H         -0.58085299   -0.07280100   -2.67773390
 C         -1.98923099    0.00878000    2.34125090
 H         -1.91883302   -3.68378305   -0.98943597
 H         -0.86948001    2.35870409   -2.16038704
 H         -0.97925597    2.85841489   -0.46469200
 H          1.84472406   -0.02741600   -1.19317901
 H          0.82844198   -2.49458289   -2.48909092
 H          1.41397500    2.47415805   -0.45287600
 H         -3.08097291    0.01737700    2.43668699
 H         -1.63794196    1.02443695    2.13874793
 H         -1.54500103   -0.35153100    3.26862907
 H         -2.43087697   -1.56494904   -1.80789006
 O          2.79287195    0.06867000    0.21584301
 O          2.25021291    2.10634995    0.97202498
 C          3.60303712    0.71661901    2.36094308
 C          2.81162095    0.98207402    1.08614302
 H          3.24412298    1.33639205    3.18298602
 H          4.65126991    0.96866602    2.17344809
 H          3.55523705   -0.33822900    2.63458204
