34
wb97x-d4 ma-def2-tzvp(-f) cpcm(dmso) E: -955.832356712163, G: -955.59694773
 C         -2.22293210   -0.66435099   -0.62937200
 C         -0.99491602   -1.56353402   -0.58864498
 O         -1.39679098   -2.89885402   -0.32154199
 C          0.01412500   -1.05645800    0.43092200
 O          1.13669598   -1.92512798    0.34488899
 C          0.36256599    0.39926699    0.12397600
 C         -0.91859400    1.22768795    0.01582800
 C         -0.67534500    2.65460491   -0.44125199
 O         -0.07850500    2.72439098   -1.73389304
 O         -1.81861198    0.65446699   -0.94064301
 O          1.14432395    0.99005198    1.15092695
 O         -2.89434409   -0.73774701    0.59578699
 H         -1.39440703    1.26097095    1.00269103
 H         -2.89256907   -0.96027398   -1.44476604
 H         -0.42638499   -1.10497499    1.43507004
 H          0.89476901    0.43475699   -0.83540201
 C         -4.15275812   -0.06761300    0.57999200
 H         -0.58808202   -3.41746902   -0.22382300
 H         -1.63010800    3.19253802   -0.43010700
 H          0.00889700    3.14287901    0.25231799
 H          1.92078996    0.41446400    1.33526897
 H          1.88403499   -1.55114198    0.86231500
 H         -0.66645801    2.26627588   -2.34695601
 H         -4.02487421    1.00960195    0.44216800
 H         -4.62449789   -0.25617999    1.54376101
 H         -4.78721380   -0.46202499   -0.22179800
 H         -0.53346699   -1.50288999   -1.58228803
 O          5.41740084   -0.74892801    1.53717899
 O          3.19074011   -0.72692198    1.70030296
 C          4.15334511   -0.12318100   -0.40036699
 C          4.28411007   -0.56817800    1.05335498
 H          5.12930489   -0.03089500   -0.87523401
 H          3.63587189    0.83877301   -0.44023001
 H          3.54388690   -0.84398699   -0.95042902
