34
wb97x-d4 ma-def2-tzvp(-f) cpcm(dmso) E: -955.832265634647, G: -955.5969146
 C         -1.36329496   -0.57713300   -0.72501397
 C         -0.00138400   -0.40143600   -1.40027905
 O          0.60367900   -1.66631198   -1.59494603
 C          0.84706300    0.56317502   -0.57578701
 O          2.08410311    0.86979300   -1.20621002
 C          0.09098300    1.87017500   -0.39913100
 C         -1.27937698    1.61459804    0.21640900
 C         -2.14286590    2.85930204    0.31273800
 O         -2.38913608    3.45946193   -0.95523798
 O         -2.00255609    0.68203998   -0.59357500
 O          0.80686599    2.75212598    0.45860100
 O         -1.18094301   -1.20368803    0.51090598
 H         -1.14708102    1.21168303    1.22741795
 H         -2.03549910   -1.17005599   -1.35614800
 H          1.03347802    0.12785800    0.41346499
 H         -0.04139800    2.33241796   -1.38503206
 C         -2.40664411   -1.57381201    1.13552701
 H          1.54009104   -1.62969005   -1.30048394
 H         -3.08725905    2.59145308    0.80049002
 H         -1.63460696    3.60515094    0.92480302
 H          1.72562003    2.73290610    0.15971300
 H          2.69221210    0.12179100   -1.00699902
 H         -2.81745791    2.79575300   -1.50932598
 H         -3.00685596   -2.19704103    0.46281099
 H         -2.98661089   -0.69193000    1.42284298
 H         -2.14887905   -2.14443207    2.02747297
 H         -0.19303299    0.06458000   -2.37557006
 O          3.93092108   -0.96117997    1.36999905
 O          3.16734600   -1.51811802   -0.65430599
 C          2.64019608   -2.96922588    1.15737700
 C          3.30786395   -1.71848905    0.60163403
 H          2.87672400   -3.11000896    2.21178794
 H          2.96049500   -3.84358191    0.58591902
 H          1.55724001   -2.87813497    1.03812802
