34
wb97x-d4 ma-def2-tzvp(-f) cpcm(dmso) E: -955.8310103967, G: -955.59680396
 C         -1.49103296   -0.67014402   -0.49951199
 C         -0.16551501   -0.71505702   -1.26443303
 O          0.36336300   -2.02597094   -1.21892905
 C          0.77387398    0.35787800   -0.71935099
 O          1.96295297    0.48593900   -1.48900497
 C          0.07526200    1.70771396   -0.76348102
 C         -1.25722206    1.65034294   -0.02874700
 C         -2.03812099    2.95153904   -0.08880200
 O         -2.28443694    3.41633701   -1.41383004
 O         -2.06798100    0.62034702   -0.60011101
 O          0.87488699    2.71472502   -0.15251000
 O         -1.26616395   -1.04413998    0.82964498
 H         -1.07004702    1.43076003    1.02950704
 H         -2.22367597   -1.34154105   -0.96245599
 H          1.02920604    0.12504500    0.32190901
 H         -0.10583000    1.96160197   -1.81619596
 C         -2.46945310   -1.21448696    1.57237196
 H          1.32221103   -2.00665498   -0.98679501
 H         -3.01512003    2.78856397    0.37126499
 H         -1.50410295    3.70804191    0.49325299
 H          1.76611900    2.61105108   -0.51036501
 H          2.52346301   -0.29110599   -1.27282906
 H         -1.48174000    3.83463192   -1.74401200
 H         -2.18691802   -1.61637902    2.54529095
 H         -3.13757110   -1.91975796    1.06459904
 H         -2.98872304   -0.26123500    1.70883703
 H         -0.40235800   -0.45603299   -2.30498290
 O          2.97990894   -1.82005703   -0.59429300
 O          4.47351217   -1.40914905    1.01296306
 C          2.56615496   -2.75812292    1.55346000
 C          3.41965795   -1.92971694    0.60144502
 H          2.39374208   -3.74877596    1.12586606
 H          1.59030294   -2.27926111    1.67103601
 H          3.04139304   -2.85693097    2.52919412
