34
wb97x-d4 ma-def2-tzvp(-f) cpcm(dmso) E: -955.831093660646, G: -955.5967689299999
 C         -2.49305010   -0.69283301   -0.26227599
 C         -1.32241797   -1.51152599   -0.78981000
 O         -1.45769501   -2.86010695   -0.36521700
 C          0.00901600   -0.91618699   -0.35683501
 O          1.01390898   -1.70165706   -0.98193997
 C          0.06626700    0.55362201   -0.76608598
 C         -1.16700602    1.28348303   -0.23586100
 C         -1.23333800    2.74321008   -0.64829600
 O         -1.19792795    2.94722891   -2.05965400
 O         -2.36058402    0.64472800   -0.70288002
 O          1.20450902    1.22218204   -0.24123301
 O         -2.53899193   -0.79311800    1.13196099
 H         -1.14092302    1.25758398    0.86035401
 H         -3.43683004   -1.04242003   -0.69662702
 H          0.10152200   -0.98010898    0.73510200
 H          0.06863000    0.59817702   -1.86420798
 C         -3.70043206   -0.18690100    1.69302404
 H         -0.65419102   -3.31625295   -0.64607900
 H         -2.18197298    3.15707493   -0.29983801
 H         -0.41896001    3.28411698   -0.15863501
 H          1.98646700    0.63236499   -0.30606699
 H          1.90129495   -1.33293605   -0.75136501
 H         -0.28756499    2.84429002   -2.35842204
 H         -3.69861889   -0.42527199    2.75637698
 H         -4.60673714   -0.59138799    1.22802806
 H         -3.68185496    0.89885902    1.56217396
 H         -1.37609398   -1.45986295   -1.88469696
 O          3.14896703   -1.23325300    1.77229798
 O          3.34126401   -0.49926201   -0.33238101
 C          5.29960489   -0.49414900    1.01425505
 C          3.81399703   -0.77178800    0.82595801
 H          5.62903118   -0.75448197    2.02005911
 H          5.49770784    0.56431001    0.82717901
 H          5.87300587   -1.06772804    0.28163800
