34
wb97x-d4 ma-def2-tzvp(-f) cpcm(dmso) E: -955.832028360522, G: -955.59675728
 C         -2.26677799   -0.68280602   -0.52751100
 C         -0.97434902   -1.48035300   -0.61761600
 O         -1.23378694   -2.84036708   -0.30036199
 C          0.10641200   -0.89346302    0.27803400
 O          1.27348006   -1.66560304    0.02260400
 C          0.29497200    0.59519798   -0.02437600
 C         -1.05764794    1.30648994   -0.01372900
 C         -0.96151900    2.73647690   -0.50585002
 O         -2.21657491    3.40783000   -0.41887799
 O         -1.99239302    0.65825701   -0.88554901
 O          1.09832895    1.25102997    0.94428402
 O         -2.79814696   -0.79603201    0.76004201
 H         -1.45009995    1.30083501    1.00902498
 H         -2.99306512   -1.03259003   -1.27019000
 H         -0.19513001   -0.99702001    1.32849205
 H          0.74357003    0.68688798   -1.02457201
 C         -4.09064102   -0.20605201    0.87991297
 H         -0.37594599   -3.28335595   -0.27760300
 H         -0.25984401    3.29112196    0.11651800
 H         -0.59489101    2.73849201   -1.54005301
 H          1.94834900    0.76240897    1.05711806
 H          2.03948402   -1.27887201    0.50763202
 H         -2.85836792    2.87228489   -0.90136898
 H         -4.04337215    0.87850702    0.74640501
 H         -4.44937611   -0.43348899    1.88333702
 H         -4.77652979   -0.63247502    0.13912199
 H         -0.63362002   -1.40016496   -1.65772295
 O          4.83721495    1.11215794    0.37594500
 O          3.28134704   -0.29641700    1.13959503
 C          4.96070814   -1.18925703   -0.28769100
 C          4.32786083   -0.02094700    0.45655400
 H          4.22396183   -1.63255703   -0.96290302
 H          5.25161314   -1.96194303    0.42853099
 H          5.83477688   -0.87421399   -0.85717702
