34
wb97x-d4 ma-def2-tzvp(-f) cpcm(dmso) E: -955.831848066384, G: -955.59673743
 C         -2.49123311   -0.57290602   -0.39693299
 C         -1.35843599   -1.55265200   -0.66302699
 O         -1.77219105   -2.86448312   -0.31165400
 C         -0.08956600   -1.14799595    0.07353600
 O          0.89876902   -2.08789110   -0.33253500
 C          0.27441901    0.29561800   -0.27717900
 C         -0.93894798    1.20936000   -0.08511100
 C         -0.70464098    2.62391901   -0.58405203
 O         -0.40238300    2.67737007   -1.97610199
 O         -2.08019090    0.71940500   -0.79890198
 O          1.30105102    0.82140601    0.54975700
 O         -2.84391999   -0.62498599    0.95556998
 H         -1.16398501    1.26126099    0.98639703
 H         -3.36089110   -0.80534500   -1.02188003
 H         -0.25775599   -1.21719694    1.15598297
 H          0.57804000    0.32059699   -1.33193898
 C         -4.00208807    0.14909300    1.25910902
 H         -0.98771203   -3.42406702   -0.38169199
 H         -1.59409404    3.22472906   -0.36250401
 H          0.14677200    3.05383897   -0.05687800
 H          1.99911904    0.14058299    0.69937998
 H          1.74827003   -1.89102197    0.12585001
 H         -1.14664197    2.28476095   -2.44851899
 H         -3.80219412    1.21873403    1.14997697
 H         -4.26560688   -0.06740800    2.29388499
 H         -4.83423424   -0.13121900    0.60341299
 H         -1.15293097   -1.50145698   -1.73984802
 O          3.08519506   -1.15598202    0.90084201
 O          4.82461214   -2.02747297   -0.19882800
 C          4.92390394    0.28207299    0.44126001
 C          4.24333477   -1.07985699    0.36209401
 H          5.03095388    0.57249701    1.48931205
 H          4.29189205    1.03062105   -0.04327300
 H          5.90330601    0.26607701   -0.03550900
