34
energy: -953.838394059086
 C         -2.33561397   -0.32775599    0.32445401
 C         -2.09516597   -1.62749696   -0.45225701
 O         -2.60041809   -2.74341798    0.27345499
 C         -0.62120903   -1.76636696   -0.80659300
 O         -0.45395300   -2.90678406   -1.65022194
 C         -0.11296200   -0.50419003   -1.50330198
 C         -0.40156901    0.71907198   -0.63483602
 C          0.01687300    2.02814102   -1.28714204
 O          0.34918401    3.03084803   -0.33405501
 O         -1.81653702    0.79208499   -0.35860100
 O          1.26912796   -0.63450301   -1.80610001
 O         -1.76867294   -0.50171399    1.60223496
 H          0.14100499    0.61376399    0.30743000
 H         -3.40850210   -0.13322400    0.41706201
 H         -0.04246700   -1.90651202    0.11503900
 H         -0.63760501   -0.39973900   -2.45923901
 C         -2.12906289    0.51633197    2.53795195
 H         -2.26013994   -2.67108011    1.17724800
 H          0.86730999    1.83478296   -1.94597101
 H         -0.80782402    2.40271711   -1.89687800
 H          1.80145502   -0.42864600   -0.99237603
 H          0.45927399   -2.87410307   -1.96938705
 H          1.20043802    2.73143792    0.07323800
 H         -1.70432603    0.22628599    3.49660707
 H         -3.21763897    0.58826202    2.62472010
 H         -1.72492397    1.48515999    2.23809290
 H         -2.67461395   -1.57723296   -1.37584305
 O          2.74552703   -0.06788100    0.36586201
 O          2.65924597    2.14688301    0.74320000
 C          4.18448305    0.85951602    2.03090191
 C          3.11072111    0.98723400    0.95504802
 H          4.60458612   -0.14410800    2.06578398
 H          3.74612999    1.09610105    3.00345898
 H          4.98024702    1.58438694    1.85045302
