34
energy: -953.841096563253
 C         -2.39851499   -0.71647102   -0.65658700
 C         -1.16111600   -1.57018304   -0.39554399
 O         -1.55135202   -2.87849212    0.00407400
 C         -0.25062999   -0.91355199    0.64096397
 O          0.87511200   -1.74259901    0.89298499
 C          0.11123400    0.48516199    0.14630300
 C         -1.17262006    1.27767897   -0.11759100
 C         -0.89943302    2.65346003   -0.71148401
 O         -0.27736399    3.52019310    0.23648600
 O         -1.99289000    0.58186603   -1.07006705
 O          0.91648501    1.19777703    1.08002603
 O         -3.19416094   -0.68655998    0.49602899
 H         -1.72108102    1.40240002    0.82210600
 H         -2.97302008   -1.10732496   -1.50242996
 H         -0.79296303   -0.82501298    1.58659899
 H          0.65136701    0.39294201   -0.80347401
 C         -4.46591520   -0.06634000    0.29517600
 H         -0.74144500   -3.31674004    0.30601701
 H         -0.27814901    2.54509091   -1.60907602
 H         -1.84482300    3.11223507   -1.00515294
 H          1.87608397    0.96414602    0.90003401
 H          1.63086700   -1.48766994    0.29427800
 H          0.40241501    2.97608900    0.67803299
 H         -5.00265694   -0.55007201   -0.52710801
 H         -4.35868692    0.99831003    0.07757400
 H         -5.02714205   -0.19052900    1.21914995
 H         -0.61648798   -1.62277198   -1.34618402
 O          3.43850708    0.69058502    0.54557699
 O          3.00117803   -1.18643403   -0.59879702
 C          5.24310684   -0.36769700   -0.59466398
 C          3.77837396   -0.27839401   -0.19288699
 H          5.78799391   -0.88282102    0.20122200
 H          5.67933416    0.62425297   -0.70829201
 H          5.36545706   -0.93929601   -1.51314104
