34
energy: -953.841933783946
 C         -2.62430906   -0.63360500   -0.43616799
 C         -1.39359403   -1.50584698   -0.69079697
 O         -1.64543903   -2.84637690   -0.27923399
 C         -0.13974300   -0.91308999   -0.04671500
 O          0.97511798   -1.66378498   -0.49651700
 C         -0.00530100    0.56805098   -0.41647899
 C         -1.29996598    1.33098197   -0.13529401
 C         -1.25494206    2.77165508   -0.63058197
 O         -0.33182201    3.56259298    0.11630200
 O         -2.39530611    0.70781201   -0.82155699
 O          1.02963603    1.20589805    0.32674900
 O         -2.95089293   -0.75873399    0.92539603
 H         -1.49049795    1.33084798    0.94270903
 H         -3.46343803   -0.96567500   -1.05443299
 H         -0.23292400   -0.98227900    1.04477596
 H          0.20704401    0.63099998   -1.49185395
 C         -4.23089695   -0.22287700    1.26788104
 H         -1.96834898   -2.80939889    0.63285798
 H         -0.99963701    2.77771306   -1.69746399
 H         -2.24213409    3.22122312   -0.51374298
 H          1.93568599    0.89546603    0.03049900
 H          1.77849996   -1.45869398    0.05260900
 H          0.44930300    2.99446607    0.25675699
 H         -5.00956678   -0.65696001    0.63331902
 H         -4.24285507    0.86395198    1.16202700
 H         -4.41530323   -0.48871800    2.30656099
 H         -1.23605895   -1.54777706   -1.77007902
 O          3.51727009    0.61497802   -0.28280601
 O          3.27784801   -1.32528305    0.80628699
 C          5.49187183   -0.50063699    0.46579999
 C          3.98046708   -0.39173499    0.32773501
 H          5.88023186   -1.03580797   -0.40537900
 H          5.76176214   -1.06802404    1.35573304
 H          5.95702124    0.48402500    0.49151000
