34
energy: -953.841974841793
 C         -1.77509105   -0.61665201    0.03646300
 C         -0.59545302   -0.97786999   -0.87656403
 O         -0.06961200   -2.25423002   -0.58211398
 C          0.44964099    0.13687301   -0.81531602
 O          1.54040504   -0.08707500   -1.69548500
 C         -0.19609800    1.46544600   -1.18127501
 C         -1.38661504    1.74073005   -0.26998499
 C         -2.16581893    2.97582793   -0.67270398
 O         -3.24030590    3.24485707    0.22929300
 O         -2.31545496    0.64537603   -0.34040600
 O          0.74253201    2.53290701   -1.04238498
 O         -1.33824003   -0.63674200    1.36742496
 H         -1.03138196    1.85558903    0.75905502
 H         -2.60115695   -1.32163596   -0.09951800
 H          0.82550502    0.21297701    0.21035500
 H         -0.54561198    1.41322505   -2.22101903
 C         -2.39149904   -0.53565902    2.32753897
 H          0.67495000   -2.17806911    0.07422000
 H         -1.51101601    3.84530401   -0.64907199
 H         -2.54333901    2.84891295   -1.69369495
 H          1.57097495    2.20932007   -1.42711198
 H          2.23246503   -0.58640802   -1.17746103
 H         -3.78957891    2.45012307    0.26697600
 H         -2.80230594    0.47643599    2.35865402
 H         -1.96083701   -0.78110600    3.29641390
 H         -3.19475389   -1.24162805    2.09525490
 H         -0.99654800   -1.02091706   -1.89392197
 O          1.95276797   -2.23936796    1.15501797
 O          3.41368103   -1.23459303   -0.21926901
 C          4.25762987   -2.27985191    1.75310695
 C          3.11753011   -1.87997794    0.82665801
 H          5.12831020   -1.64202797    1.60981095
 H          4.54626417   -3.30927300    1.52487695
 H          3.93786407   -2.24923611    2.79432797
