34
energy: -953.841099090571
 C         -2.33678007   -0.54558700   -0.01098900
 C         -1.30024505   -1.34973502   -0.78862703
 O         -1.31669796   -2.70674706   -0.36080700
 C          0.08935500   -0.74124902   -0.64591199
 O          0.98347199   -1.51778603   -1.42752302
 C          0.05917700    0.72617698   -1.07330406
 C         -1.03872395    1.45935500   -0.29373300
 C         -1.24936199    2.87855291   -0.77618003
 O         -2.23596096    3.56608009   -0.00284700
 O         -2.30963302    0.79827398   -0.46671200
 O          1.31105804    1.37040699   -0.90156901
 O         -2.07894301   -0.65398598    1.36164701
 H         -0.77911103    1.47210801    0.76985902
 H         -3.34970999   -0.89647198   -0.23236699
 H          0.38674399   -0.79075098    0.40714800
 H         -0.19069301    0.76790798   -2.14016294
 C         -3.10400295   -0.08957600    2.18069696
 H         -0.51903600   -3.11015511   -0.73514700
 H         -0.32158700    3.43823791   -0.67499501
 H         -1.53496301    2.86269689   -1.83460605
 H          1.85598803    0.90279698   -0.21291700
 H          1.86748099   -1.53068900   -0.96091503
 H         -3.03511596    3.02079606   -0.00813200
 H         -2.84674597   -0.32436499    3.21150804
 H         -4.07651997   -0.52906299    1.93720996
 H         -3.15827489    0.99463898    2.05776811
 H         -1.59439301   -1.29144704   -1.84375095
 O          2.94418693    0.31057000    0.92833698
 O          3.26878905   -1.64443803   -0.12094600
 C          4.75348616   -1.08374298    1.64701998
 C          3.56082606   -0.77656901    0.75144798
 H          5.64827013   -1.19827700    1.03082097
 H          4.59104919   -2.03355002    2.16085100
 H          4.91946507   -0.29775500    2.38162303
