34
energy: -953.841486794595
 C         -2.52605104   -0.55097902   -0.23890100
 C         -1.34004700   -1.43823802   -0.59448099
 O         -1.55469501   -2.76002407   -0.10894100
 C         -0.03547300   -0.85751402   -0.06636800
 O          0.99737799   -1.71690798   -0.52651900
 C          0.14170700    0.58790100   -0.54234600
 C         -1.11954796    1.39635503   -0.23413900
 C         -1.09949005    2.77726507   -0.85610700
 O         -2.24855804    3.54457998   -0.48669001
 O         -2.29040098    0.74639702   -0.76592600
 O          1.22220099    1.23463798    0.10890300
 O         -2.71424198   -0.54627502    1.14887798
 H         -1.22393000    1.49228501    0.85105097
 H         -3.43629503   -0.89432597   -0.74146700
 H         -0.06142000   -0.85469800    1.02970397
 H          0.29898301    0.57289100   -1.62958503
 C         -3.91237712    0.11452700    1.55897701
 H         -0.70041901   -3.21055293   -0.18680000
 H         -0.22866300    3.32557297   -0.50315702
 H         -1.03853202    2.68335891   -1.94642997
 H          2.08574295    0.80222899   -0.13009200
 H          1.82728803   -1.57146001    0.01049800
 H         -3.02769589    3.02281094   -0.72358799
 H         -3.86437607    1.18606997    1.35340500
 H         -4.00672913   -0.04521700    2.63109493
 H         -4.78072119   -0.31280401    1.04733098
 H         -1.28795099   -1.45618200   -1.68976200
 O          3.24855709   -1.49900496    0.84487200
 O          3.68703699    0.32386500   -0.37487000
 C          5.50607586   -0.72524601    0.76047200
 C          4.03792477   -0.63133901    0.37318599
 H          5.66605091   -0.11881500    1.65662396
 H          6.14516783   -0.32802701   -0.02743800
 H          5.79025412   -1.75059998    0.99351400
