34
energy: -953.838116656034
 C         -2.56521297   -0.62040597   -0.54351598
 C         -1.39510596   -1.59184599   -0.39585000
 O         -1.84683895   -2.83855796    0.12411500
 C         -0.25945601   -0.98914599    0.43069300
 O          0.84052098   -1.89131498    0.35016799
 C          0.08965900    0.41185299   -0.08281700
 C         -1.16115606    1.28066599   -0.22091900
 C         -0.87306499    2.62161112   -0.88673300
 O         -0.07444600    3.46991992   -0.06385600
 O         -2.13105297    0.62780201   -1.04917598
 O          0.96957099    1.09961498    0.80550998
 O         -3.18233609   -0.51073998    0.71409702
 H         -1.57998204    1.45954704    0.77430600
 H         -3.28006005   -0.99207997   -1.28325105
 H         -0.59000701   -0.88992298    1.47277606
 H          0.55400997    0.30944201   -1.07291102
 C         -4.45290899    0.14422800    0.68200898
 H         -2.35604811   -2.64763594    0.92536497
 H         -0.38738599    2.44465709   -1.85424197
 H         -1.81732202    3.13633490   -1.06946397
 H          1.84627700    0.62057799    0.83880103
 H          1.67494702   -1.44177198    0.61082399
 H          0.60915703    2.89622092    0.32909700
 H         -5.12199116   -0.35432300   -0.02586600
 H         -4.34588289    1.19387901    0.40044501
 H         -4.86668491    0.07769800    1.68587101
 H         -1.01327002   -1.80232203   -1.39622903
 O          3.08280396   -0.42777300    0.94842798
 O          4.75857592   -1.34283805   -0.21563099
 C          4.18482780    0.94181103   -0.66341603
 C          4.01562023   -0.38488400    0.06689300
 H          4.29664707    1.75347698    0.05774200
 H          3.28395200    1.14747405   -1.24685204
 H          5.04518890    0.92055601   -1.32945204
