34
energy: -953.837970242219
 C         -2.56329799   -0.66445398   -0.60214603
 C         -1.37793601   -1.61984503   -0.46757299
 O         -1.81250203   -2.88506889    0.02204300
 C         -0.25765601   -1.01749396    0.38125101
 O          0.86025000   -1.89623499    0.28437600
 C          0.06953600    0.40352800   -0.09098200
 C         -1.19595599    1.25233495   -0.21919200
 C         -0.92539102    2.61371708   -0.84886998
 O         -0.14885800    3.45422411    0.00307200
 O         -2.14592290    0.60243601   -1.07418001
 O          0.92913002    1.08279097    0.82248700
 O         -3.19280505   -0.59667200    0.65162700
 H         -1.62932706    1.39698005    0.77511102
 H         -3.26609397   -1.02956402   -1.35657799
 H         -0.59701002   -0.95171797    1.42314398
 H          0.54232103    0.33513200   -1.08000302
 C         -4.47402477    0.03795000    0.62540400
 H         -2.33390594   -2.71956491    0.82110298
 H         -0.42667601    2.46850109   -1.81496596
 H         -1.87611306    3.11738205   -1.02830601
 H          1.81671405    0.62116301    0.84596902
 H          1.68645096   -1.43580794    0.55518401
 H          0.53985101    2.88235211    0.38975301
 H         -4.89381981   -0.05963000    1.62414896
 H         -5.12943602   -0.45407301   -0.09963800
 H         -4.38214588    1.09566998    0.36985701
 H         -0.98408699   -1.80208099   -1.46867204
 O          4.85021210   -1.19307804   -0.14537500
 O          3.05958700   -0.41056699    0.94353199
 C          4.26350403    1.11339700   -0.43816999
 C          4.06213093   -0.27696401    0.15269700
 H          3.38881993    1.38550901   -1.03343999
 H          5.15267277    1.15291202   -1.06424296
 H          4.34910822    1.84624004    0.36678299
