34
energy: -953.840914389622
 C         -1.45636404   -0.37779999   -0.85702699
 C         -0.08812500   -0.75100499   -0.28352499
 O          0.05397600   -2.15628505   -0.23958400
 C          0.09826500   -0.09067500    1.08471406
 O          1.36191404   -0.36129799    1.67359304
 C         -0.11102700    1.41743302    0.95156598
 C         -1.48318803    1.70224798    0.35435399
 C         -1.72762704    3.17140198    0.07950300
 O         -3.04507399    3.40497208   -0.42401999
 O         -1.59210205    1.03757501   -0.91688502
 O         -0.02094000    2.05251789    2.22774410
 O         -2.46070004   -0.97414303   -0.08276700
 H         -2.25814009    1.32917094    1.03165996
 H         -1.53684294   -0.70773000   -1.89745104
 H         -0.65866601   -0.47970501    1.77234697
 H          0.65954602    1.82181203    0.28163499
 C         -3.76636505   -0.85421300   -0.65000600
 H          1.01764905   -2.36010790   -0.39075801
 H         -1.64023697    3.73608398    1.00602496
 H         -0.97446603    3.53842902   -0.62708598
 H          0.75536799    1.66968000    2.66286206
 H          2.05756307   -0.46997300    0.96560901
 H         -3.15643692    2.84598994   -1.20525301
 H         -4.43660116   -1.43678701   -0.02122200
 H         -3.78029704   -1.25373602   -1.66910100
 H         -4.09697580    0.18654799   -0.66777903
 H          0.65152901   -0.32512701   -0.97042501
 O          2.59439111   -2.68938398   -0.79784399
 O          3.33646607   -0.70060903   -0.07308100
 C          4.82793188   -2.03724694   -1.35477996
 C          3.47856998   -1.79349101   -0.69195497
 H          5.06791210   -1.20295894   -2.01661396
 H          4.83605719   -2.96648598   -1.92157197
 H          5.60448790   -2.07638788   -0.58757699
