34
energy: -953.839943518187
 C         -1.50974095   -0.56345302   -0.89029199
 C         -0.13462900   -0.83903497   -0.28107101
 O          0.05589600   -2.22802806   -0.10439400
 C          0.02629500   -0.04736000    1.01993096
 O          1.29925299   -0.21812600    1.62502003
 C         -0.23371300    1.42743695    0.73053998
 C         -1.60379899    1.62699103    0.08803200
 C         -1.85723901    3.06774306   -0.33933800
 O         -2.02301598    3.93882895    0.77964300
 O         -1.68430805    0.83478498   -1.10406804
 O         -0.18984801    2.20354009    1.93583405
 O         -2.50019193   -1.09773397   -0.05410400
 H         -2.38242888    1.32223797    0.79516602
 H         -1.58017397   -1.00419903   -1.88922799
 H         -0.71763599   -0.39353999    1.74376702
 H          0.53360200    1.79180598    0.03581200
 C         -3.80528593   -1.08541501   -0.63437301
 H          1.02138102   -2.40932107   -0.27404001
 H         -1.03344798    3.40648007   -0.97918999
 H         -2.78061604    3.11149406   -0.91787899
 H          0.68014902    2.05985093    2.33470011
 H          1.99517405   -0.37100399    0.92786300
 H         -1.29547095    3.74750090    1.39390397
 H         -3.80114007   -1.59727299   -1.60261703
 H         -4.17019606   -0.06499600   -0.76945698
 H         -4.46011496   -1.61483800    0.05464600
 H          0.59511399   -0.45759001   -1.00359905
 O          3.28114200   -0.62094200   -0.10436500
 O          2.60131311   -2.66872811   -0.71412599
 C          4.81815290   -1.98685205   -1.29797304
 C          3.45971894   -1.74364996   -0.65489501
 H          4.89317799   -2.98925710   -1.71434999
 H          5.60719395   -1.83997202   -0.55832398
 H          4.97845316   -1.25435495   -2.09181905
