34
energy: -953.837965755003
 C         -2.27686906   -0.50388902    0.39045200
 C         -1.93636000   -1.58773506   -0.63698602
 O         -2.24540806   -2.88067198   -0.12386700
 C         -0.48644400   -1.45470595   -1.07700706
 O         -0.24346600   -2.36068606   -2.15481901
 C         -0.17556000   -0.02086700   -1.51696301
 C         -0.53961301    0.95638901   -0.39796001
 C         -0.39379999    2.43617105   -0.74466401
 O          0.94937700    2.87447095   -0.84661800
 O         -1.93762898    0.78284502   -0.07975600
 O          1.17262304    0.06256300   -1.94893503
 O         -1.60957003   -0.84223700    1.58233702
 H          0.05984600    0.74039400    0.48988000
 H         -3.35644197   -0.46589899    0.56537098
 H          0.16863801   -1.70767903   -0.23451100
 H         -0.79695499    0.21447600   -2.38782692
 C         -2.01057100   -0.06504100    2.71234703
 H         -1.85926795   -2.93392110    0.76238400
 H         -0.88117999    2.63720107   -1.70274603
 H         -0.93303901    2.99988890    0.02772500
 H          1.77113903    0.02336000   -1.15175104
 H          0.61347997   -2.10225105   -2.52582693
 H          1.47989595    2.47932196   -0.10580700
 H         -1.71587396    0.97967702    2.59379411
 H         -1.50749898   -0.48828301    3.57919192
 H         -3.09452701   -0.12304400    2.85117102
 H         -2.58160901   -1.44213700   -1.50507295
 O          2.72497106   -0.15871800    0.20721200
 O          2.43573594    1.85879600    1.14544702
 C          3.69297695    0.22571200    2.34835792
 C          2.87960505    0.67760098    1.14142394
 H          4.75417280    0.36663201    2.12414789
 H          3.53528404   -0.83358502    2.54997993
 H          3.45198298    0.81529099    3.23187709
