34
energy: -953.840812633472
 C         -1.57370603   -0.47191599   -0.86151201
 C         -0.19069301   -0.79811001   -0.29716101
 O          0.02889900   -2.19414091   -0.32110700
 C         -0.05726700   -0.19440600    1.10269499
 O          1.20385802   -0.44278601    1.70505595
 C         -0.32178500    1.30706406    1.01803100
 C         -1.69392800    1.57497203    0.40845999
 C         -1.98628294    3.04421711    0.16459700
 O         -1.05114806    3.65692592   -0.72394699
 O         -1.78460205    0.93459100   -0.87642199
 O         -0.27937201    1.90158904    2.31653905
 O         -2.54562092   -1.14295697   -0.10603400
 H         -2.46531105    1.18075895    1.07903802
 H         -1.63983500   -0.77260202   -1.91185999
 H         -0.80917603   -0.64284402    1.75823700
 H          0.44545901    1.76084697    0.37993601
 C         -3.85749888   -1.07178104   -0.66587901
 H          1.00276196   -2.33239794   -0.47262999
 H         -3.00433707    3.13826799   -0.22735600
 H         -1.92677999    3.58615994    1.10720396
 H          0.50154698    1.53068602    2.75361705
 H          1.92052805   -0.43026099    1.01004100
 H         -1.06637204    3.15700412   -1.55139601
 H         -4.49249077   -1.71543801   -0.06045500
 H         -3.85414410   -1.42975497   -1.70047200
 H         -4.24461985   -0.05078000   -0.64093399
 H          0.52965999   -0.29958600   -0.95471698
 O          2.63461804   -2.47732091   -0.81491703
 O          3.21675992   -0.45800400   -0.03128600
 C          4.81384802   -1.65092397   -1.33471406
 C          3.44392204   -1.51701200   -0.68239701
 H          4.80196810   -2.39003491   -2.13432693
 H          5.53075790   -1.97589397   -0.57564300
 H          5.15224218   -0.68827802   -1.71806896
