34
energy: -953.841656067108
 C         -2.42828608   -0.68142998   -0.01964500
 C         -1.35893404   -1.42181301   -0.81924599
 O         -1.33124304   -2.79285502   -0.44049200
 C          0.00763100   -0.76773399   -0.65114403
 O          0.93351001   -1.48427701   -1.45310998
 C         -0.10005300    0.70385498   -1.04213500
 C         -1.20551097    1.37091303   -0.21061300
 C         -1.44573796    2.82033896   -0.60998499
 O         -0.32935399    3.64693904   -0.28108501
 O         -2.45139503    0.68333602   -0.41535699
 O          1.13324201    1.40518701   -0.91103399
 O         -2.17547107   -0.83793199    1.34825099
 H         -0.93112200    1.33399904    0.84889698
 H         -3.42590308   -1.05928600   -0.26490000
 H          0.30579299   -0.83199799    0.40061200
 H         -0.38999501    0.76227301   -2.09717703
 C         -3.21827197   -0.33895299    2.18540311
 H         -0.52016503   -3.15670991   -0.82642400
 H         -1.66415906    2.86678410   -1.68434405
 H         -2.31231999    3.20629311   -0.07049400
 H          1.70412397    0.99673402   -0.19361100
 H          1.82383502   -1.42533696   -1.00831604
 H          0.46301201    3.12601805   -0.51593500
 H         -4.16984606   -0.82114398    1.93919504
 H         -3.32902694    0.74296600    2.08435297
 H         -2.94083190   -0.58060598    3.20942211
 H         -1.64869201   -1.33633399   -1.87369096
 O          2.75571799    0.49697900    0.94999403
 O          3.24343801   -1.38685203   -0.16396900
 C          4.53840399   -0.86001599    1.76707494
 C          3.43231511   -0.55568701    0.76709300
 H          4.09753799   -1.38461399    2.61928511
 H          4.99238205    0.05788200    2.13838696
 H          5.29794788   -1.50529003    1.32815397
