34
energy: -953.840359108654
 C         -2.39420509   -0.55177099   -0.62759298
 C         -1.16573203   -1.44728899   -0.51520199
 O         -1.56481504   -2.80519199   -0.36127701
 C         -0.27053401   -0.99022800    0.63377303
 O          0.84216601   -1.86526096    0.76125401
 C          0.12320500    0.46918699    0.41053000
 C         -1.13808203    1.32050002    0.23552001
 C         -0.84797901    2.75725603   -0.15613399
 O         -0.14311400    2.86459088   -1.39419496
 O         -1.97351801    0.79117000   -0.81279898
 O          0.87394601    0.98335201    1.49677706
 O         -3.19177604   -0.70809102    0.51394600
 H         -1.69257498    1.33110297    1.18041301
 H         -2.97294688   -0.78891599   -1.52605402
 H         -0.83442700   -1.06182694    1.56821299
 H          0.71004701    0.53286099   -0.51157302
 C         -4.46387911   -0.06587900    0.41418800
 H         -0.76294100   -3.29023290   -0.11543300
 H         -1.79441094    3.30548811   -0.20531400
 H         -0.21913899    3.21574998    0.60457301
 H          1.83320296    0.81832498    1.29319203
 H          1.61503506   -1.52852595    0.22763100
 H         -0.67602199    2.42801189   -2.07241893
 H         -4.35755920    1.02049696    0.37551501
 H         -5.02679920   -0.34369400    1.30293405
 H         -4.99774790   -0.40686601   -0.47862500
 H         -0.60995400   -1.33053899   -1.45335197
 O          3.42267704    0.57679099    0.82950503
 O          3.02415800   -1.12783396   -0.57513398
 C          5.11777592    0.00356600   -0.74518102
 C          3.74970889   -0.20487000   -0.10797800
 H          5.49124193   -0.92014402   -1.18531704
 H          5.83125496    0.38941300   -0.01767000
 H          5.01694584    0.74467301   -1.54311097
