26
wb97x-d4 ma-def2-tzvp(-f) cpcm(dmso) E: -726.362220103604, G: -726.18613485
 C         -1.17882895    0.18845700   -0.41236699
 C         -0.99960399   -1.23795497    0.09527900
 O         -0.17967500    1.03339505    0.17576700
 C         -2.52383900    0.79557902   -0.05566100
 H         -1.06736803    0.20184000   -1.50325298
 C          1.11827195    0.64118898   -0.04376300
 C          1.45028996   -0.78467798    0.32488400
 O          2.02034712    1.54074097    0.41137901
 C          0.39582801   -1.72370195   -0.25099501
 H          1.45333004   -0.88615298    1.41863298
 O          2.75294399   -1.16295099   -0.09672200
 O          0.53443301   -3.04054189    0.26712900
 H          0.49947801   -1.73932600   -1.34474301
 O         -1.99291098   -2.04156709   -0.52620399
 H         -1.12316895   -1.25135005    1.18483102
 H         -2.56697512    1.81226301   -0.46148601
 O         -2.77540398    0.80107701    1.34493196
 H         -3.31230998    0.20236400   -0.51935101
 H         -2.11203599    1.36436403    1.76121902
 H         -1.80102706   -2.96006799   -0.29977301
 H          1.40149403   -3.37214899    0.00333900
 C          1.81913304    2.89272904   -0.02953200
 H          2.70489812    3.44546795    0.27964801
 H          0.93118900    3.32456112    0.43408900
 H          1.72115004    2.92095304   -1.11776996
 H          2.83036304   -0.96453899   -1.03951001
