26
wb97x-d4 ma-def2-tzvp(-f) cpcm(dmso) E: -726.359551318036, G: -726.18328895
 C         -1.09188104    0.22917300   -0.02829000
 C         -0.89863402   -1.27212596    0.14606901
 O         -0.15981001    0.92835301    0.83629203
 C         -2.47389102    0.69892198    0.37291801
 H         -0.89060998    0.51077098   -1.06829095
 C          1.15513897    0.63680398    0.58636498
 C          1.49651694   -0.82372200    0.74386799
 O          1.71179295    1.19318199   -0.52462798
 C          0.54851002   -1.64706099   -0.13806701
 H          1.32965100   -1.10938394    1.78565705
 O          2.85138798   -1.11762094    0.45064500
 O          0.67983902   -3.04085302    0.10949700
 H          0.76835400   -1.42942297   -1.19215405
 O         -1.78449297   -1.92776799   -0.75205100
 H         -1.13674498   -1.54688001    1.18282294
 H         -3.22035289    0.17914300   -0.22800300
 O         -2.64369893    2.09185195    0.13685501
 H         -2.64271212    0.45828700    1.42960501
 H         -1.98570502    2.55926204    0.66558897
 H         -1.58338702   -2.87130690   -0.71454197
 H          1.57753503   -3.30000496   -0.13145401
 C          1.38243699    2.56935501   -0.76602799
 H          1.63099205    3.17320395    0.10987400
 H          0.32296801    2.67914796   -1.00258803
 H          1.98614204    2.87822700   -1.61739302
 H          3.07065511   -0.69953197   -0.39256999
