26
wb97x-d4 ma-def2-tzvp(-f) cpcm(dmso) E: -726.360225725256, G: -726.18321778
 C         -1.05038702    0.17031600   -0.18674301
 C         -0.78056097   -1.25287402    0.29759300
 O         -0.03660100    1.04417205    0.32092699
 C         -2.36262608    0.73961800    0.34298301
 H         -1.03998601    0.19484700   -1.28346503
 C          1.24751306    0.68960297   -0.01660600
 C          1.67168605   -0.72167701    0.31701601
 O          2.15461111    1.62264597    0.35001701
 C          0.60234100   -1.70452201   -0.14259399
 H          1.79464197   -0.81765401    1.40452504
 O          2.94465494   -1.02428401   -0.23392101
 O          0.91287601   -2.98475599    0.39223799
 H          0.61499500   -1.74397397   -1.24110997
 O         -1.70864797   -2.18268991   -0.24885701
 H         -0.82790703   -1.26463401    1.39576006
 H         -2.35454512    0.70565200    1.43480003
 O         -3.48576593   -0.03445700   -0.08208300
 H         -2.46368909    1.78087401    0.02470100
 H         -3.67578101    0.18448400   -1.00260794
 H         -2.59265995   -1.80033600   -0.13511100
 H          0.20558500   -3.58428693    0.12396500
 C          1.87235200    2.96274400   -0.08264900
 H          1.01022005    3.36951709    0.44741201
 H          1.68679297    2.97686696   -1.15975106
 H          2.76107907    3.54691792    0.15061300
 H          2.89981103   -0.87211102   -1.18705404
