26
wb97x-d4 ma-def2-tzvp(-f) cpcm(dmso) E: -726.358548492022, G: -726.18225783
 C         -1.01103604    0.44511899   -0.04595000
 C         -0.94077998   -1.07541597    0.02699200
 O         -0.03048500    0.99890202    0.87074000
 C         -2.36541009    1.02252698    0.31981701
 H         -0.76833200    0.77347898   -1.06398797
 C          1.25462306    0.61333698    0.60140002
 C          1.47765696   -0.87716597    0.63869798
 O          1.86830103    1.20883095   -0.46028900
 C          0.46636301   -1.55131900   -0.29746801
 H          1.28803301   -1.23366106    1.65464103
 O          2.80499291   -1.25305998    0.31520000
 O          0.47915101   -2.96586800   -0.15028000
 H          0.70541799   -1.27874899   -1.33437896
 O         -1.88883495   -1.59432006   -0.89781702
 H         -1.18871605   -1.39840102    1.04638505
 H         -2.27686501    2.11064291    0.34784400
 O         -2.83390403    0.61427099    1.60044003
 H         -3.08125496    0.75561202   -0.46267200
 H         -3.22875810   -0.26092201    1.51877701
 H         -1.77563405   -2.55290794   -0.91471797
 H          1.34303606   -3.28530598   -0.43727401
 C          1.68578303    2.62793708   -0.56857800
 H          2.31729603    2.95071411   -1.39434195
 H          1.99836195    3.11734509    0.35698101
 H          0.64306098    2.86996102   -0.78064001
 H          3.05793500   -0.78158301   -0.48952001
