26
wb97x-d4 ma-def2-tzvp(-f) cpcm(dmso) E: -726.357672054701, G: -726.18217684
 C         -1.28777003   -0.05520500   -0.43073499
 C         -0.91513199   -1.30859399    0.36557001
 O         -0.12360100    0.67844599   -0.85972100
 C         -2.18966699    0.87325001    0.36217400
 H         -1.78564596   -0.36703199   -1.35125303
 C          0.94457901    0.54991400   -0.00125700
 C          1.52002895   -0.83212203    0.15142500
 O          1.86953402    1.52670503   -0.13118100
 C          0.41951999   -1.85140705   -0.12043500
 H          1.88225901   -0.95970201    1.17694998
 O          2.58810496   -1.10817897   -0.76771802
 O          0.64780098   -3.08525491    0.54908198
 H          0.36033100   -2.01797605   -1.20245302
 O         -1.96299303   -2.24811292    0.16982999
 H         -0.82800901   -1.06857097    1.43431199
 H         -3.07857609    0.32578999    0.68263698
 O         -2.63589907    1.97459698   -0.41962901
 H         -1.65048695    1.21957004    1.25284195
 H         -1.85353994    2.46163297   -0.70611799
 H         -1.66995096   -3.07954001    0.56501901
 H          1.31930196   -3.57696009    0.06296200
 C          1.35861599    2.86832690   -0.07336600
 H          2.22831297    3.52194595   -0.03148100
 H          0.74832702    2.99659991    0.82430202
 H          0.76600999    3.09481907   -0.96085101
 H          3.32854795   -0.53293997   -0.54090703
