26
wb97x-d4 ma-def2-tzvp(-f) cpcm(dmso) E: -726.359630446043, G: -726.18192775
 C         -1.31610501   -0.11546400   -0.42087600
 C         -0.90849501   -1.58649802   -0.31087500
 O         -0.19365899    0.70702201   -0.80432099
 C         -1.98694396    0.46866000    0.81451797
 H         -2.00882912   -0.02927400   -1.26011896
 C          0.91148198    0.55274600   -0.00357000
 C          1.45004702   -0.83693600    0.14341800
 O          1.87964404    1.47129500   -0.24777099
 C          0.33770400   -1.79540205    0.56322002
 H          2.24223208   -0.83897197    0.89626801
 O          1.95961201   -1.34530199   -1.10963595
 O          0.06951000   -1.55192399    1.93617904
 H          0.69287300   -2.81996703    0.41317001
 O         -0.69414997   -2.13801599   -1.60770202
 H         -1.74387205   -2.13849592    0.12870800
 H         -2.83718491   -0.15901500    1.08922601
 O         -2.50577903    1.76975203    0.54501802
 H         -1.28824604    0.49826899    1.65305996
 H         -1.75987899    2.34050798    0.32381999
 H          0.19173400   -1.86575198   -1.89343405
 H         -0.52976900   -2.23876405    2.25153589
 C          1.43674600    2.82980990   -0.38457400
 H          2.33669806    3.44246292   -0.37540400
 H          0.79102802    3.10120201    0.45469099
 H          0.90143597    2.97023106   -1.32443595
 H          2.57216597   -0.69217598   -1.47011399
