26
wb97x-d4 ma-def2-tzvp(-f) cpcm(dmso) E: -726.358503594679, G: -726.18191243
 C         -1.03683805    0.36072201   -0.18474901
 C         -0.90054500   -1.15481400   -0.14156801
 O         -0.14325200    0.92852801    0.81090599
 C         -2.42532802    0.87068099    0.14454800
 H         -0.75130099    0.73006803   -1.17670095
 C          1.17186999    0.59986597    0.62524003
 C          1.46774304   -0.88113302    0.64322299
 O          1.82749200    1.24515796   -0.38019601
 C          0.54891199   -1.57330298   -0.37478599
 H          1.22877097   -1.26736999    1.63941598
 O          2.83475399   -1.16471100    0.41370299
 O          0.66410297   -2.99139309   -0.34431601
 H          0.84841299   -1.27551603   -1.38503695
 O         -1.74786401   -1.69552398   -1.14718699
 H         -1.21519005   -1.50946796    0.84896600
 H         -2.41911006    1.96476197    0.08556700
 O         -2.88493204    0.43633801    1.41910195
 H         -3.12952709    0.48748201   -0.59500700
 H         -2.28025794    0.78691399    2.08420610
 H         -1.52828801   -2.63325405   -1.22281396
 H          0.49009800   -3.29352307    0.55733299
 C          1.59881794    2.65927196   -0.46666700
 H          1.85409105    3.13756490    0.48199701
 H          0.55815202    2.86886692   -0.71870798
 H          2.25326800    3.02187490   -1.25721300
 H          3.11594701   -0.65808803   -0.35925701
