26
wb97x-d4 ma-def2-tzvp(-f) cpcm(dmso) E: -726.358253590176, G: -726.18189046
 C         -1.04718304    0.16243000    0.06213700
 C         -0.78073001   -1.32129705    0.29328299
 O         -0.08721500    0.92966902    0.83864802
 C         -2.41516709    0.60671598    0.53090900
 H         -0.91781098    0.41058299   -0.99886101
 C          1.21536005    0.66987300    0.51305097
 C          1.63734400   -0.76630801    0.70835000
 O          1.67446005    1.19655800   -0.65631002
 C          0.66512603   -1.67309499   -0.05351800
 H          1.56196594   -1.00888395    1.77194905
 O          2.98461890   -0.98877501    0.33465901
 O          0.94513702   -3.02422094    0.28232300
 H          0.81380498   -1.51384795   -1.13251400
 O         -1.67961001   -2.14297605   -0.44563299
 H         -0.95999497   -1.55937898    1.34633803
 H         -3.18121791    0.03634900    0.00463600
 O         -2.64822412    1.98092699    0.24278800
 H         -2.50821590    0.41199699    1.60615802
 H         -1.97895396    2.49441600    0.71123499
 H         -1.56950796   -1.94973803   -1.38629496
 H          0.24233100   -3.56316590   -0.10329100
 C          1.29206300    2.55402899   -0.92303401
 H          1.81169701    2.83804798   -1.83630502
 H          1.60233402    3.19898891   -0.09744300
 H          0.21351300    2.63213611   -1.06841195
 H          3.11407304   -0.61103201   -0.54484701
