26
wb97x-d4 ma-def2-tzvp(-f) cpcm(dmso) E: -726.358333591774, G: -726.18147348
 C         -0.99555302    0.43940601    0.07806900
 C         -0.90366203   -1.08108699    0.17726000
 O          0.01112400    1.02064502    0.93867499
 C         -2.33416295    0.98987800    0.55357999
 H         -0.81760800    0.75369197   -0.95718402
 C          1.29131901    0.64005601    0.62661600
 C          1.52877200   -0.84801501    0.69049102
 O          1.85370004    1.21627295   -0.47108799
 C          0.49253801   -1.55516601   -0.19397400
 H          1.37730002   -1.17890406    1.72127104
 O          2.84787989   -1.21803105    0.33034599
 O          0.52936298   -2.96448898   -0.01567400
 H          0.68793499   -1.30113196   -1.24444401
 O         -1.88925898   -1.62791002   -0.69604301
 H         -1.11478400   -1.37812400    1.21274602
 H         -2.56638002    0.57400399    1.54200995
 O         -3.38097811    0.72749603   -0.37244299
 H         -2.25112891    2.07442498    0.64586800
 H         -3.34570289   -0.21793400   -0.57783800
 H         -1.89017701   -2.58593512   -0.58026099
 H          1.39942896   -3.27447701   -0.29519099
 C          1.63171804    2.62683296   -0.61961102
 H          1.94075894    3.15243196    0.28677401
 H          0.58086097    2.83399606   -0.82781702
 H          2.24510288    2.94108701   -1.46196795
 H          3.07159400   -0.75901800   -0.49016899
