26
wb97x-d4 ma-def2-tzvp(-f) cpcm(dmso) E: -726.361632201546, G: -726.1853077
 C         -1.10698903    0.11853900   -0.40474600
 C         -0.84692699   -1.29182601    0.11787600
 O         -0.13695300    1.00890100    0.16832100
 C         -2.47062707    0.67040598   -0.03496900
 H         -1.00767100    0.12924001   -1.49696505
 C          1.17080796    0.67199498   -0.07777000
 C          1.59247398   -0.74187601    0.24722400
 O          2.04001689    1.60346603    0.37760699
 C          0.55564100   -1.73177898   -0.26888600
 H          1.67065597   -0.85780603    1.33696604
 O          2.89190793   -1.02043498   -0.25429901
 O          0.85243398   -3.01245689    0.26942801
 H          0.61721498   -1.76322806   -1.36648202
 O         -1.75096703   -2.22826004   -0.46076700
 H         -0.93848199   -1.29763496    1.20855105
 H         -2.55847812    1.68646002   -0.43463799
 O         -2.71162701    0.65623498    1.36795998
 H         -3.24288011    0.05273600   -0.49653500
 H         -2.06959391    1.24456894    1.78304899
 H         -2.53828096   -2.28233099    0.09202800
 H          0.13540301   -3.59990907   -0.00164700
 C          1.77718794    2.95117092   -0.04238900
 H          1.67211294    2.99066401   -1.12966704
 H          2.63991094    3.53699088    0.27098799
 H          0.87383199    3.33746004    0.43156299
 H          2.88987708   -0.83129102   -1.20180094
