26
wb97x-d4 ma-def2-tzvp(-f) cpcm(dmso) E: -726.360141695213, G: -726.18140274
 C         -1.24202394    0.03465600   -0.65187001
 C         -0.96542603   -1.47179103   -0.53046900
 O         -0.03049800    0.78941202   -0.83695501
 C         -2.12968111    0.66263598    0.40894699
 H         -1.78503299    0.16130400   -1.59106803
 C          0.99270397    0.48490599    0.02745400
 C          1.40380001   -0.94813502    0.12274000
 O          2.03865409    1.34350502   -0.07533800
 C          0.18361300   -1.82275999    0.42772001
 H          2.14316607   -1.05940294    0.91946602
 O          1.95303500   -1.43784499   -1.12596703
 O         -0.18520901   -1.72992301    1.78903997
 H          0.45833999   -2.86405611    0.24567400
 O         -0.69259101   -2.00786209   -1.82554996
 H         -1.87864697   -1.95600903   -0.17651799
 H         -2.32152295    1.70097995    0.12203400
 O         -1.52006698    0.62953198    1.70231104
 H         -3.07976103    0.11838500    0.41796100
 H         -2.18179607    0.87980998    2.35770202
 H          0.24051499   -1.82474005   -2.01869512
 H         -0.63205498   -0.87187499    1.92793798
 C          1.70158398    2.73919010   -0.05970700
 H          2.64352798    3.27552199    0.04326900
 H          1.05099499    2.95790005    0.79083902
 H          1.20790303    3.03024411   -0.98774201
 H          2.62647390   -0.81358200   -1.42321396
