26
wb97x-d4 ma-def2-tzvp(-f) cpcm(dmso) E: -726.356041436473, G: -726.18125743
 C         -1.22507095   -0.04176200   -0.47552001
 C         -0.86953503   -1.29712200    0.32783401
 O         -0.05209200    0.67918599   -0.89455599
 C         -2.14680696    0.86457700    0.31200901
 H         -1.71490097   -0.35596901   -1.39975703
 C          1.00248098    0.55284798   -0.02195800
 C          1.57010305   -0.82937402    0.15489800
 O          1.93390501    1.52502799   -0.14700700
 C          0.47141400   -1.84601998   -0.13213600
 H          1.91063905   -0.95036900    1.18870604
 O          2.65652609   -1.11910403   -0.73885000
 O          0.68344599   -3.07766891    0.54698998
 H          0.43105701   -2.01703191   -1.21434200
 O         -1.91693401   -2.23321199    0.11385900
 H         -0.80114001   -1.05707800    1.39796996
 H         -2.96187496    0.25797799    0.72338402
 O         -2.65414310    1.87247705   -0.55779499
 H         -1.58446801    1.30926001    1.14209497
 H         -3.22833896    2.44953799   -0.04225500
 H         -1.64402294   -3.05946398    0.53331298
 H          1.36765695   -3.57003093    0.07957000
 C          1.42721295    2.86886501   -0.10790000
 H          0.84060901    3.08717203   -1.00096500
 H          2.29929590    3.51950002   -0.06767300
 H          0.81200302    3.00963402    0.78444898
 H          3.39298010   -0.54185700   -0.50436598
