26
wb97x-d4 ma-def2-tzvp(-f) cpcm(dmso) E: -726.356947509667, G: -726.18097427
 C         -1.24712801    0.02836100   -0.64180303
 C         -0.97465098   -1.22523201    0.18647400
 O         -0.06208400    0.83041000   -0.81222999
 C         -2.36570311    0.89146501   -0.07975500
 H         -1.53823197   -0.29360199   -1.64610398
 C          0.96326298    0.56137502    0.06495600
 C          1.48425698   -0.84978801    0.12513600
 O          1.94564497    1.49266601    0.03721500
 C          0.36210901   -1.82072902   -0.22164600
 H          1.82919204   -1.05252194    1.14432895
 O          2.55935502   -1.09564197   -0.79536098
 O          0.50003600   -3.07037497    0.44600901
 H          0.36170399   -1.97740602   -1.30685902
 O         -2.04437709   -2.12241697   -0.07816900
 H         -0.94806898   -0.97799200    1.25454497
 H         -2.52899694    1.73903596   -0.75406700
 O         -2.11411405    1.34319401    1.24510300
 H         -3.28052711    0.29641500   -0.04444300
 H         -1.39816999    1.98794496    1.21091795
 H         -1.79833400   -2.97048092    0.31364399
 H          1.16080105   -3.59504199   -0.01990600
 C          1.52140105    2.85493112    0.18976700
 H          2.43155789    3.44798708    0.26387900
 H          0.93106902    2.96318698    1.10391200
 H          0.93618399    3.17869496   -0.67177898
 H          3.31381011   -0.56443799   -0.51376700
