26
wb97x-d4 ma-def2-tzvp(-f) cpcm(dmso) E: -726.356954187907, G: -726.18097391
 C         -1.22344995    0.03054200   -0.68519902
 C         -0.98314202   -1.22631705    0.14864799
 O         -0.03069200    0.82908100   -0.81297898
 C         -2.35866499    0.89517999   -0.15969300
 H         -1.48046899   -0.28856701   -1.69956899
 C          0.95956302    0.56086701    0.10402200
 C          1.47522795   -0.85192001    0.18840200
 O          1.94423997    1.49049401    0.11216600
 C          0.36839700   -1.82002401   -0.21136300
 H          1.76947296   -1.05500400    1.22332203
 O          2.59212708   -1.10139501   -0.67944002
 O          0.48015001   -3.07572103    0.45012301
 H          0.41094899   -1.96685898   -1.29705799
 O         -2.04271293   -2.12164807   -0.15871701
 H         -0.99583000   -0.98222703    1.21762300
 H         -2.49506807    1.74619806   -0.83542198
 O         -2.15416694    1.33965695    1.17614698
 H         -3.27579308    0.30281001   -0.16049200
 H         -1.43949103    1.98680401    1.17131305
 H         -1.81556106   -2.96996999    0.24386300
 H          1.15842402   -3.59676003    0.00572100
 C          1.51720905    2.85553694    0.22931500
 H          0.88240701    2.97550893    1.11147499
 H          0.97708201    3.17210603   -0.66366303
 H          2.42423797    3.44698405    0.34262699
 H          3.33555388   -0.57535601   -0.36117101
