26
wb97x-d4 ma-def2-tzvp(-f) cpcm(dmso) E: -726.357144594359, G: -726.18029356
 C         -0.96384001    0.43384799    0.11911800
 C         -0.85591000   -1.08692002    0.15815100
 O          0.09397200    0.98327100    0.93792701
 C         -2.27127409    0.95760101    0.69964498
 H         -0.85108399    0.78762501   -0.91248697
 C          1.34823799    0.62365699    0.51688302
 C          1.61325502   -0.86369199    0.51033199
 O          1.81680501    1.23900998   -0.60378098
 C          0.51727098   -1.55602002   -0.31540599
 H          1.54428101   -1.22532201    1.54130399
 O          2.91424704   -1.17942297    0.05447700
 O          0.60455698   -2.97442698   -0.26167199
 H          0.64003402   -1.28955996   -1.36978602
 O         -1.88854396   -1.61512804   -0.66875398
 H         -1.00240397   -1.41610706    1.19675004
 H         -2.43228889    0.51065999    1.68875802
 O         -3.37713504    0.71138299   -0.15985200
 H         -2.19157696    2.03985310    0.81854999
 H         -3.35177398   -0.22755300   -0.39370000
 H         -1.81554306   -2.57774305   -0.65142202
 H          0.60427397   -3.24677396    0.66588801
 C          1.59356594    2.65527606   -0.67697799
 H          2.13792801    3.00129700   -1.55361295
 H          1.98011196    3.14223599    0.22123200
 H          0.53071898    2.87510991   -0.78928101
 H          3.06211710   -0.70215899   -0.77228600
