26
wb97x-d4 ma-def2-tzvp(-f) cpcm(dmso) E: -726.36125995133, G: -726.18522005
 C         -1.23287201    0.06417000   -0.20445900
 C         -0.92240000   -1.35540903    0.25455099
 O         -0.19274700    0.93983799    0.25734901
 C         -2.52898192    0.59726602    0.37306201
 H         -1.26875103    0.10076100   -1.29922998
 C          1.05388904    0.59909302   -0.20381200
 C          1.51631606   -0.80555302    0.10660700
 O          1.99931300    1.52664602    0.07737700
 C          0.43323299   -1.79836094   -0.28932300
 H          1.68760097   -0.88454998    1.19488096
 O          2.70881200   -1.12542105   -0.59209400
 O          0.72709501   -3.12581801    0.12952501
 H          0.37577200   -1.83886600   -1.38081205
 O         -1.95263004   -2.20880699   -0.21909100
 H         -0.88846201   -1.37101603    1.35393906
 H         -3.35063696   -0.04994200    0.06662800
 O         -2.82389498    1.90293205   -0.10988700
 H         -2.46570611    0.59120399    1.46803498
 H         -2.11250710    2.48926401    0.17473200
 H         -1.65261102   -3.11672306   -0.08059600
 H          0.87813503   -3.11933303    1.08414304
 C          1.70439196    2.86104012   -0.36656600
 H          2.61032605    3.44189000   -0.20173600
 H          0.88043100    3.28547001    0.20865400
 H          1.45208502    2.85281301   -1.42977095
 H          3.36479712   -0.45258999   -0.37210599
