26
wb97x-d4 ma-def2-tzvp(-f) cpcm(dmso) E: -726.35679212763, G: -726.18024959
 C         -1.25754905    0.02691900   -0.63680500
 C         -0.94922698   -1.24219799    0.15395001
 O         -0.08122600    0.83961999   -0.82272798
 C         -2.35980606    0.87207502   -0.01845800
 H         -1.57932997   -0.27405000   -1.63830101
 C          0.98270899    0.53079998   -0.00773800
 C          1.50960100   -0.88024902   -0.04080100
 O          1.96434402    1.46277905   -0.03644700
 C          0.36352900   -1.84053004   -0.33598199
 H          1.93012905   -1.10872102    0.94594699
 O          2.51789999   -1.08128297   -1.04164004
 O          0.57337099   -3.13888907    0.20808400
 H          0.30010700   -1.98342395   -1.41839600
 O         -2.03454995   -2.13157392   -0.07076800
 H         -0.86658198   -1.01258302    1.22389805
 H         -2.55319905    1.73150802   -0.66939998
 O         -2.05982494    1.30017602    1.30406594
 H         -3.26925611    0.27080300    0.03999400
 H         -1.34860098    1.94898701    1.25400305
 H         -1.76062906   -2.99594688    0.26318300
 H          0.75931400   -3.04990411    1.15197003
 C          1.55080402    2.81579089    0.20354100
 H          0.92475802    3.18141103   -0.61123300
 H          2.46466708    3.40477204    0.26235101
 H          1.00633395    2.87862492    1.14987302
 H          3.27221394   -0.52491701   -0.81216401
