26
wb97x-d4 ma-def2-tzvp(-f) cpcm(dmso) E: -726.356466232975, G: -726.1801738
 C         -1.04937196   -0.04667200   -0.62608403
 C         -0.78726798   -1.22093201    0.31799600
 O         -0.07846200    0.99034899   -0.38836601
 C         -2.41411591    0.59048599   -0.44593000
 H         -0.95244300   -0.38451600   -1.66530001
 C          1.12910497    0.56558001    0.10984500
 C          1.61434805   -0.78827900   -0.30557999
 O          2.08925796    1.52508795    0.06584700
 C          0.55190003   -1.85611403   -0.02299900
 H          2.51361203   -1.02393997    0.26907501
 O          1.90965402   -0.83841902   -1.71626496
 O          1.01340699   -2.68741393    1.03597796
 H          0.42391399   -2.44776106   -0.93657398
 O         -1.78296399   -2.22853994    0.18485200
 H         -0.75400299   -0.85058701    1.34709501
 H         -2.49511909    1.44604099   -1.12545800
 O         -2.65462494    0.98723602    0.89937502
 H         -3.18808794   -0.13132000   -0.71038699
 H         -1.99321401    1.65058506    1.13115501
 H         -2.52485704   -2.00684810    0.75901002
 H          0.32412401   -3.34066796    1.21027303
 C          1.69417703    2.82082891    0.53852701
 H          0.98712897    3.28610706   -0.14989200
 H          2.60543990    3.41456008    0.59035701
 H          1.24522400    2.73666191    1.53183305
 H          2.57323909   -0.16151400   -1.89838195
