26
wb97x-d4 ma-def2-tzvp(-f) cpcm(dmso) E: -726.356612875491, G: -726.1801027
 C         -1.23631299   -0.05975800   -0.44243300
 C         -0.85128802   -1.31551898    0.34070501
 O         -0.07255200    0.68656802   -0.85697901
 C         -2.14647603    0.85624999    0.35377499
 H         -1.72578096   -0.36522099   -1.36969304
 C          1.00237095    0.54172999   -0.00710200
 C          1.59304500   -0.83820999    0.09968000
 O          1.89865398    1.54710400   -0.08802400
 C          0.48108000   -1.85337400   -0.16980299
 H          1.97617805   -0.97886097    1.11471796
 O          2.72777891   -1.06205702   -0.74699801
 O          0.75708300   -3.13526702    0.38006300
 H          0.40052500   -2.01085591   -1.25026405
 O         -1.89486504   -2.26273990    0.15507901
 H         -0.75111800   -1.08011794    1.41025698
 H         -3.03541303    0.30202299    0.66282701
 O         -2.59380698    1.96343100   -0.41955101
 H         -1.61522400    1.19586003    1.25186896
 H         -1.81186604    2.45111203   -0.70556098
 H         -1.55732405   -3.11067891    0.47338399
 H          0.97058898   -3.02881193    1.31630194
 C          1.34795702    2.87012005    0.01784500
 H          0.76187301    3.11796999   -0.86832201
 H          2.19892502    3.54438090    0.09981800
 H          0.72178102    2.94494510    0.91070801
 H          2.45418811   -0.92002201   -1.66230202
