26
wb97x-d4 ma-def2-tzvp(-f) cpcm(dmso) E: -726.357539076545, G: -726.18003587
 C         -1.18326902    0.10066700   -0.54594398
 C         -0.90300399   -1.39967597   -0.45749599
 O          0.01996000    0.85106802   -0.79207301
 C         -1.91024697    0.70267600    0.65861201
 H         -1.79405499    0.26169699   -1.43774605
 C          1.04252398    0.57679403    0.08237800
 C          1.46561694   -0.85427201    0.19506501
 O          2.08693409    1.43425298   -0.03575900
 C          0.25772801   -1.73961306    0.48935601
 H          2.20094609   -0.95179898    0.99774998
 O          2.02257705   -1.34484804   -1.04547703
 O         -0.08674100   -1.53856897    1.85297203
 H          0.54634500   -2.78138900    0.31405100
 O         -0.64404601   -1.93324101   -1.75544596
 H         -1.80966496   -1.88813603   -0.09370700
 H         -1.33175504    0.55220199    1.56825197
 O         -3.17550206    0.08371500    0.86704397
 H         -2.02141094    1.77848804    0.48592299
 H         -3.76037192    0.33538499    0.14245500
 H          0.27661699   -1.72179794   -1.97315204
 H         -0.78546298   -2.16340208    2.08033395
 C          1.74748302    2.82910395   -0.06392900
 H          1.09746695    3.07280898    0.78040701
 H          1.25227904    3.08979106   -1.00007606
 H          2.68875289    3.36970806    0.02128500
 H          2.70029998   -0.72161299   -1.33508205
