26
wb97x-d4 ma-def2-tzvp(-f) cpcm(dmso) E: -726.357993365847, G: -726.17989197
 C         -1.25595200    0.22393300   -0.66985899
 C         -1.03750098   -1.29047203   -0.67855102
 O         -0.00415600    0.91302299   -0.85573399
 C         -1.94576800    0.80344898    0.57628500
 H         -1.83898795    0.46548301   -1.55997801
 C          0.95680398    0.56252998    0.06269700
 C          1.28725505   -0.89287800    0.18975601
 O          2.05699611    1.35421896    0.01150600
 C          0.00846700   -1.72398901    0.34858900
 H          1.93616295   -1.03725398    1.05893099
 O          1.94313502   -1.39823794   -0.99529701
 O         -0.56963199   -1.54632199    1.63525200
 H          0.25602099   -2.77614498    0.17710000
 O         -0.66575903   -1.72698700   -1.98194599
 H         -1.98453104   -1.77905703   -0.44531101
 H         -1.20127106    0.93448800    1.36465502
 O         -3.03224993    0.01088400    1.03520703
 H         -2.35082507    1.78446198    0.31978101
 H         -2.64737296   -0.73558700    1.51355600
 H          0.28085101   -1.54749095   -2.09079790
 H          0.02835800   -1.90816402    2.29956198
 C          1.80726302    2.76785398   -0.02718600
 H          1.12221301    3.04928303    0.77649099
 H          1.38906300    3.06225395   -0.99053699
 H          2.77297091    3.24851704    0.12036100
 H          2.68844795   -0.81779498   -1.19453001
