26
wb97x-d4 ma-def2-tzvp(-f) cpcm(dmso) E: -726.357127436678, G: -726.17985126
 C         -1.15565300   -0.11344900   -0.22141001
 C         -0.88720000   -1.53451204    0.31409800
 O         -0.11158000    0.79305899    0.17950000
 C         -2.45144296    0.45965201    0.31175801
 H         -1.18173099   -0.14263700   -1.31530797
 C          1.10881901    0.47077900   -0.37047201
 C          1.47080100   -0.99255699   -0.36544400
 O          2.10401702    1.29797697    0.02546400
 C          0.59855098   -1.71246600    0.66513801
 H          2.52833796   -1.09455705   -0.10580100
 O          1.20641398   -1.62616205   -1.62641096
 O          0.89527899   -1.25086296    1.97595000
 H          0.82667100   -2.78008008    0.65320897
 O         -1.33396995   -2.50477099   -0.62374699
 H         -1.46414900   -1.70574105    1.22656798
 H         -3.26257110   -0.23247699    0.07556400
 O         -2.77946496    1.70809805   -0.28331500
 H         -2.38049793    0.55230701    1.40270197
 H         -2.08190608    2.33450794   -0.05620000
 H         -0.73409498   -2.44770288   -1.38202202
 H          0.60779899   -0.33162701    2.05134606
 C          1.80484402    2.70164704   -0.03947500
 H          2.74647498    3.21758699    0.14071500
 H          1.07682395    2.97819495    0.72412300
 H          1.42014098    2.95577002   -1.03049099
 H          1.42928803   -0.99997902   -2.32603908
