26
wb97x-d4 ma-def2-tzvp(-f) cpcm(dmso) E: -726.356594768497, G: -726.1797011799999
 C         -1.14243305   -0.06964900   -0.25921601
 C         -0.86014199   -1.48691702    0.27651900
 O         -0.13014600    0.86298102    0.14642701
 C         -2.45979404    0.47531900    0.25098801
 H         -1.15820396   -0.10571700   -1.35371804
 C          1.11224496    0.55398601   -0.34334001
 C          1.48632896   -0.90279400   -0.39463300
 O          2.08958793    1.37050498    0.11961400
 C          0.63194799   -1.68873894    0.59355003
 H          2.54630804   -1.00160003   -0.14499900
 O          1.22384202   -1.48426104   -1.68224597
 O          0.97357202   -1.22050905    1.89001596
 H          0.85608798   -2.75625396    0.49250701
 O         -1.33296394   -2.45479298   -0.65302002
 H         -1.42521203   -1.65532601    1.19766903
 H         -3.25123096   -0.23758200    0.01048700
 O         -2.81008601    1.71029305   -0.36116099
 H         -2.40587807    0.58104700    1.34156704
 H         -2.12278295    2.35095406   -0.14244001
 H         -0.75931799   -2.39125705   -1.43030202
 H          0.54042000   -1.78675795    2.53899693
 C          1.79179299    2.77395797    0.07211000
 H          1.02575302    3.03372693    0.80413401
 H          1.45647597    3.05166698   -0.93077397
 H          2.72185707    3.28746009    0.31054401
 H          1.40197098   -0.80974299   -2.34927893
