26
wb97x-d4 ma-def2-tzvp(-f) cpcm(dmso) E: -726.355200940686, G: -726.17963269
 C         -1.14497602    0.20327599   -0.59178197
 C         -0.91568202   -1.07465696    0.21727000
 O          0.07282800    0.94132602   -0.77458799
 C         -2.17258692    1.12761199    0.05329500
 H         -1.48657501   -0.08374800   -1.59044194
 C          1.09031999    0.59608901    0.08579800
 C          1.55144095   -0.83415902    0.07794600
 O          2.09826207    1.49594402    0.10643600
 C          0.36869201   -1.74743903   -0.23450901
 H          1.93885899   -1.08212996    1.07126200
 O          2.56562901   -1.09841895   -0.90686601
 O          0.45765200   -3.00122595    0.43214700
 H          0.32457599   -1.90179098   -1.31880295
 O         -2.05555201   -1.89868999   -0.00703800
 H         -0.83760601   -0.83617699    1.28625703
 H         -1.85833097    1.35172999    1.08103502
 O         -3.48257494    0.57052398    0.02617700
 H         -2.20950603    2.06282806   -0.50878602
 H         -3.41284990   -0.36035901    0.28104299
 H         -1.90880203   -2.72654605    0.46819901
 H          1.07768404   -3.56072593   -0.04891700
 C          1.70626795    2.86145401    0.31916699
 H          2.62934995    3.41961598    0.46716300
 H          1.07561600    2.93441200    1.20887101
 H          1.17129195    3.24956703   -0.54841101
 H          3.35657191   -0.60830802   -0.65192199
