26
wb97x-d4 ma-def2-tzvp(-f) cpcm(dmso) E: -726.356932557545, G: -726.17932014
 C         -1.12372899    0.01821200   -0.45216200
 C         -0.97755998   -1.44953406    0.00020500
 O         -0.09466600    0.84058899    0.12977600
 C         -2.45181799    0.63540202   -0.05576300
 H         -1.02735496    0.06110400   -1.54224503
 C          1.16956103    0.49083599   -0.28570500
 C          1.46583796   -0.98466301   -0.34967700
 O          2.14295197    1.23457897    0.29087800
 C          0.44399300   -1.72986197    0.51020002
 H          2.47836900   -1.15814102    0.02583600
 O          1.33364606   -1.50851595   -1.68051195
 O          0.59813899   -1.37616801    1.87823296
 H          0.62608099   -2.80440688    0.44548500
 O         -1.34516895   -2.32560611   -1.05843604
 H         -1.66925597   -1.65391099    0.81895101
 H         -2.51852298    1.64970899   -0.46332300
 O         -2.65018296    0.64643002    1.35346305
 H         -3.25487900    0.03356700   -0.48708400
 H         -2.00585294    1.25250900    1.73781598
 H         -0.65355200   -2.24691892   -1.73200798
 H          0.33431000   -0.45335600    1.98822904
 C          1.91125906    2.65264010    0.30172199
 H          2.84547997    3.10733104    0.62724400
 H          1.11088598    2.90858293    0.99733502
 H          1.65537000    2.99772811   -0.70336097
 H          1.65665698   -0.83813399   -2.29509807
