26
wb97x-d4 ma-def2-tzvp(-f) cpcm(dmso) E: -726.357026105377, G: -726.17930748
 C         -1.16568696    0.16947900   -0.50381303
 C         -0.90856701   -1.33086705   -0.42177400
 O          0.03299400    0.90051401   -0.80975801
 C         -1.82693100    0.77604097    0.73561102
 H         -1.81819201    0.33969200   -1.36378205
 C          1.09921205    0.60494298    0.01102200
 C          1.51156604   -0.83368897    0.07225900
 O          2.12718010    1.47578597   -0.12709300
 C          0.29967201   -1.69871104    0.44458100
 H          2.28989792   -0.94763702    0.82973403
 O          2.09051991   -1.28734696   -1.16378200
 O         -0.07177300   -1.52552795    1.80561602
 H          0.55508697   -2.74688697    0.24954601
 O         -0.67002302   -1.77059102   -1.76684701
 H         -1.80363703   -1.80991006   -0.01685500
 H         -1.22480297    0.58811897    1.62250805
 O         -3.10767508    0.20311201    0.97740901
 H         -1.90116501    1.85758698    0.58150500
 H         -3.70593691    0.48964801    0.27723899
 H         -0.69755298   -2.73521209   -1.77795804
 H          0.65894300   -1.82942605    2.35683894
 C          1.77336895    2.86542010   -0.06933700
 H          1.20735395    3.16069102   -0.95381802
 H          2.71335697    3.41388202   -0.03095100
 H          1.18540001    3.06673098    0.83028901
 H          1.35739100   -1.39583898   -1.78839195
