26
wb97x-d4 ma-def2-tzvp(-f) cpcm(dmso) E: -726.356257904192, G: -726.1792223599999
 C         -1.10412896    0.16165100   -0.68656099
 C         -0.85041398   -1.33805001   -0.57321298
 O          0.11845300    0.89507902   -0.85740000
 C         -1.89472997    0.77099597    0.46622801
 H         -1.65941894    0.32724100   -1.61200297
 C          1.08407700    0.60733300    0.08194900
 C          1.49679899   -0.82855201    0.18876800
 O          2.11351490    1.48672497    0.06620800
 C          0.25516301   -1.70008504    0.42313999
 H          2.18583488   -0.93865699    1.02867198
 O          2.21320510   -1.27624094   -0.97518498
 O         -0.26608399   -1.53020406    1.73418200
 H          0.53578800   -2.74684000    0.25700200
 O         -0.45746401   -1.77598798   -1.88188398
 H         -1.78250599   -1.82288897   -0.27276400
 H         -1.39083099    0.58850902    1.41708899
 O         -3.19550300    0.18456300    0.45394501
 H         -1.95322299    1.85114503    0.29316300
 H         -3.67591190    0.51044500    1.22253799
 H         -0.48650500   -2.74046993   -1.89796400
 H          0.39893901   -1.83432400    2.36303496
 C          1.74622798    2.87340593    0.09937900
 H          1.06303704    3.06123304    0.93203402
 H          1.27784801    3.17544603   -0.83834499
 H          2.67295194    3.42639804    0.24571100
 H          1.55488098   -1.38786697   -1.67772603
