26
wb97x-d4 ma-def2-tzvp(-f) cpcm(dmso) E: -726.354885748309, G: -726.17908758
 C         -1.15691900   -0.04173400   -0.42418599
 C         -0.87075698   -1.19751000    0.52564502
 O         -0.15110800    0.97693402   -0.27016601
 C         -2.48836207    0.62815303   -0.14077400
 H         -1.12914705   -0.39208800   -1.46262002
 C          1.08861899    0.54318500    0.12726200
 C          1.50188005   -0.83615297   -0.27068400
 O          2.05907297    1.47757697   -0.04595800
 C          0.44446301   -1.86736906    0.15673900
 H          2.45057392   -1.06899905    0.22019200
 O          1.65044200   -0.95778000   -1.70176804
 O          0.84049499   -2.62317204    1.29653096
 H          0.26660901   -2.52994609   -0.69631600
 O         -1.95774901   -2.10984206    0.44897300
 H         -0.78224701   -0.79562902    1.54360104
 H         -3.29513311   -0.08564100   -0.30406201
 O         -2.72100496    1.72561800   -1.01744199
 H         -2.51214194    0.95566100    0.90567398
 H         -2.03077412    2.37987494   -0.85570401
 H         -1.75271595   -2.85290599    1.02951097
 H          1.52329302   -3.24853301    1.02746606
 C          1.73174202    2.80402589    0.39202601
 H          1.37770998    2.78074789    1.42612100
 H          0.97012001    3.24819708   -0.25073299
 H          2.65399694    3.37906599    0.32576501
 H          2.28904104   -0.29173800   -1.98509300
