26
wb97x-d4 ma-def2-tzvp(-f) cpcm(dmso) E: -726.354926260078, G: -726.17905759
 C         -1.60075104   -0.21528099   -0.48510000
 C         -1.03201103   -1.45589995    0.21644200
 O         -0.61976999    0.42881000   -1.33836102
 C         -2.14637208    0.79186898    0.51486802
 H         -2.38706708   -0.52612299   -1.17340505
 C          0.57723898    0.71763402   -0.75499302
 C          1.19528794   -0.35785300    0.09656100
 O          0.64050001    2.03103995   -0.39941800
 C          0.42823499   -1.65253496   -0.15239500
 H          1.12817204   -0.10410200    1.16181898
 O          2.59140110   -0.54487503   -0.15323000
 O          0.93669200   -2.71385288    0.64115900
 H          0.49894801   -1.91097796   -1.21664798
 O         -1.82747996   -2.57587194   -0.15617000
 H         -1.08310997   -1.31988502    1.30501902
 H         -2.96002197    0.32233199    1.07274699
 O         -2.67838001    1.94306898   -0.12248000
 H         -1.36091602    1.06975102    1.22901702
 H         -1.95951498    2.34988999   -0.62274301
 H         -1.51938200   -3.33474588    0.35441801
 H          1.88092303   -2.78534102    0.45160300
 C          1.91201901    2.49623895    0.07203400
 H          2.19744992    1.98598695    0.99414903
 H          1.78977203    3.56045103    0.26591501
 H          2.67883992    2.33894897   -0.68969101
 H          2.71929407   -0.53867698   -1.11111605
