26
wb97x-d4 ma-def2-tzvp(-f) cpcm(dmso) E: -726.360977439833, G: -726.18425671
 C         -1.12652302    0.32175100   -0.16008700
 C         -0.94096500   -1.11761200    0.31126001
 O         -0.03078600    1.10889304    0.31789300
 C         -2.39011192    0.97330803    0.39207399
 H         -1.14901102    0.35201100   -1.25569999
 C          1.20748401    0.67193401   -0.09127600
 C          1.52942801   -0.77279699    0.21037599
 O          2.19876194    1.52835095    0.24263699
 C          0.36941200   -1.66460001   -0.22441700
 H          1.67570698   -0.89257598    1.29249501
 O          2.74804497   -1.19311595   -0.38522899
 O          0.52197802   -2.98903394    0.26763299
 H          0.32240999   -1.67409897   -1.32193005
 O         -2.05336189   -1.87377906   -0.15690500
 H         -0.91417098   -1.12769997    1.40889502
 H         -2.43288302    0.82392102    1.47829497
 O         -3.56459093    0.48214701   -0.23999099
 H         -2.34298897    2.04559398    0.19302900
 H         -3.53456593   -0.48323700   -0.18037200
 H         -1.95083904   -2.78021097    0.15791300
 H          1.32693803   -3.35597992   -0.11790700
 C          1.98422098    2.89794111   -0.13342300
 H          1.72083998    2.95849299   -1.19241202
 H          2.92783904    3.41052508    0.04639200
 H          1.19565403    3.34729099    0.47149000
 H          2.70208001   -0.99741697   -1.33073199
