26
wb97x-d4 ma-def2-tzvp(-f) cpcm(dmso) E: -726.356249676779, G: -726.17895894
 C         -1.12799597   -0.05023600   -0.09379900
 C         -0.85154402   -1.47459996    0.43261701
 O         -0.03844100    0.83068800    0.22764800
 C         -2.38880491    0.52602500    0.51805401
 H         -1.22656202   -0.09021500   -1.18433702
 C          1.12688398    0.47977400   -0.41517100
 C          1.45054996   -0.99235803   -0.44734499
 O          2.17389488    1.27438796   -0.09005900
 C          0.65348798   -1.69142306    0.65544301
 H          2.52355504   -1.12232304   -0.28064001
 O          1.06158197   -1.61372995   -1.68202305
 O          1.07528996   -1.23671198    1.93410206
 H          0.85195601   -2.76466107    0.62726301
 O         -1.40380502   -2.44121194   -0.45097399
 H         -1.35136604   -1.62121904    1.39381397
 H         -3.19080496   -0.21181899    0.39953601
 O         -2.76247406    1.78101897   -0.03504800
 H         -2.22662807    0.68924600    1.58657002
 H         -3.03983092    1.63710904   -0.94740802
 H         -0.87261701   -2.40615702   -1.25995696
 H          0.81927198   -0.31027099    2.03107190
 C          1.91292906    2.68648696   -0.12372100
 H          1.47392702    2.96183705   -1.08613896
 H          2.87895298    3.17312098    0.00038500
 H          1.24315000    2.97637796    0.68681800
 H          1.23544300   -0.98913503   -2.39669991
