26
wb97x-d4 ma-def2-tzvp(-f) cpcm(dmso) E: -726.355094439944, G: -726.17895082
 C         -0.97840399    0.00510900   -0.61540699
 C         -0.74005598   -1.19749403    0.30111200
 O         -0.01351400    1.02990496   -0.31699100
 C         -2.36056089    0.60316300   -0.47636199
 H         -0.84428602   -0.30052900   -1.66014802
 C          1.19160402    0.57524800    0.15825500
 C          1.66304696   -0.77015603   -0.30361399
 O          2.16585898    1.52306795    0.13699400
 C          0.59226900   -1.83838999   -0.05335600
 H          2.56053209   -1.03203595    0.26234800
 O          1.95634198   -0.77586699   -1.71536601
 O          1.04565001   -2.70213890    0.98285502
 H          0.46123001   -2.40309691   -0.98346901
 O         -1.74911904   -2.18701100    0.14754599
 H         -0.70188999   -0.84847897    1.33719301
 H         -2.38533092    1.55847704   -1.01100802
 O         -2.65972209    0.78319103    0.90666902
 H         -3.08147192   -0.07491000   -0.94435102
 H         -3.52530193    1.20133603    0.97228003
 H         -2.51375294   -1.92129803    0.67218298
 H          0.35085201   -3.35391307    1.14013600
 C          1.79204702    2.81333995    0.63962799
 H          2.71116900    3.39445090    0.69456601
 H          1.35198200    2.71549201    1.63559306
 H          1.08451700    3.30212808   -0.03178900
 H          2.62630796   -0.09958900   -1.87549400
