26
wb97x-d4 ma-def2-tzvp(-f) cpcm(dmso) E: -726.355748739571, G: -726.17892504
 C         -1.15982699    0.00971500   -0.13049801
 C         -0.90091997   -1.39934504    0.44025999
 O         -0.08416900    0.90343702    0.17878200
 C         -2.43434906    0.60165602    0.43668899
 H         -1.24425900   -0.06760800   -1.22072506
 C          1.10488701    0.52661598   -0.38921699
 C          1.39637804   -0.94788200   -0.45793599
 O          2.15628409    1.28167200    0.01652400
 C          0.59673899   -1.67743301    0.62100601
 H          2.47035289   -1.09685802   -0.30656001
 O          0.98785001   -1.53319204   -1.70482802
 O          0.97891301   -1.23096001    1.91502404
 H          0.75184101   -2.75693607    0.52113903
 O         -1.51654994   -2.37268400   -0.39429799
 H         -1.37376297   -1.49654198    1.42073596
 H         -3.22886705   -0.14766800    0.34570599
 O         -2.81274390    1.82395005   -0.18469600
 H         -2.28693390    0.82159299    1.49695504
 H         -3.07399392    1.63103497   -1.09296799
 H         -1.02650201   -2.36990905   -1.22910404
 H          1.90253103   -1.47046697    2.05686998
 C          1.93605804    2.69961596    0.01596000
 H          2.90613794    3.15492797    0.20908400
 H          1.23050904    2.98397899    0.79786402
 H          1.55869305    3.02016807   -0.95880502
 H          1.16570604   -0.89087701   -2.40296412
