26
wb97x-d4 ma-def2-tzvp(-f) cpcm(dmso) E: -726.354938579202, G: -726.17884536
 C         -1.53177798   -0.11402700   -0.64342803
 C         -0.96301800   -1.17027998    0.30142200
 O         -0.53147203    0.85008901   -1.03226197
 C         -2.73011208    0.62824398   -0.07454600
 H         -1.84028995   -0.61972398   -1.56285000
 C          0.56459302    0.90416598   -0.21072701
 C          1.37092495   -0.36195999   -0.06371000
 O          1.19278300    2.08947301   -0.41235399
 C          0.42713699   -1.56226301   -0.16819701
 H          1.84839594   -0.38038799    0.91796100
 O          2.45695210   -0.47040799   -0.99934900
 O          0.85899299   -2.65932703    0.62890500
 H          0.36459100   -1.87050402   -1.21953797
 O         -1.85902405   -2.27269006    0.25774199
 H         -0.90173501   -0.77718300    1.32322800
 H         -3.13029194    1.29636705   -0.84467697
 O         -2.41684008    1.35500300    1.10786605
 H         -3.50242710   -0.09703600    0.19023301
 H         -1.80901206    2.06399798    0.86671901
 H         -1.43295097   -2.99657202    0.73451102
 H          1.58335197   -3.10254908    0.17287900
 C          2.27158809    2.36071301    0.49106401
 H          3.09529710    1.66145205    0.33520100
 H          1.92188001    2.30268312    1.52527499
 H          2.60278296    3.37395811    0.27006999
 H          2.08967996   -0.43123600   -1.89143801
