26
wb97x-d4 ma-def2-tzvp(-f) cpcm(dmso) E: -726.356930970743, G: -726.17877673
 C         -1.23824298   -0.05897100   -0.41298699
 C         -0.82182002   -1.53185904   -0.42052001
 O         -0.11179300    0.80170399   -0.65314502
 C         -1.98859596    0.38799199    0.83534002
 H         -1.89601195    0.10965500   -1.27032804
 C          0.93069297    0.58490998    0.21598500
 C          1.50323904   -0.80397803    0.22582000
 O          1.86491394    1.57326901    0.21528199
 C          0.37718499   -1.81809199    0.48368800
 H          2.23921895   -0.87174499    1.03012800
 O          2.19898391   -1.11180794   -0.98865402
 O         -0.07921200   -1.76454794    1.82637894
 H          0.75243300   -2.81732607    0.23910300
 O         -0.40455300   -1.92400002   -1.73099601
 H         -1.67175996   -2.13734603   -0.08930000
 H         -2.82421803   -0.29128700    1.01366699
 O         -2.54090691    1.68966901    0.65393698
 H         -1.32743204    0.36723799    1.70372105
 H         -1.80616903    2.30826592    0.56059700
 H         -1.09528100   -1.69108701   -2.36308908
 H          0.64636999   -2.03388810    2.40171599
 C          1.49773705    2.83564711   -0.35054699
 H          1.18548501    2.72352600   -1.38938999
 H          2.39145494    3.45525289   -0.29719299
 H          0.69222099    3.29921603    0.22594100
 H          1.52606106   -1.28040898   -1.66515505
