26
wb97x-d4 ma-def2-tzvp(-f) cpcm(dmso) E: -726.354892081172, G: -726.17865096
 C         -1.10675395   -0.12230600   -0.39491200
 C         -0.70027798   -1.23994803    0.56607598
 O         -0.13731200    0.94151402   -0.33789399
 C         -2.44698596    0.49903101   -0.05017500
 H         -1.13079202   -0.50670302   -1.42156804
 C          1.13074398    0.56412601    0.02737500
 C          1.59210801   -0.79726702   -0.38712600
 O          2.05277801    1.54248703   -0.16246399
 C          0.60191000   -1.86657500    0.08723600
 H          2.56441307   -0.98806900    0.07378000
 O          1.69820905   -0.91550797   -1.82016599
 O          1.21655405   -2.62943101    1.11926198
 H          0.36982200   -2.50926495   -0.76960701
 O         -1.67591405   -2.27552795    0.61293298
 H         -0.54773998   -0.81392699    1.56396103
 H         -3.22775412   -0.25877199   -0.12300700
 O         -2.79679704    1.53573704   -0.96015602
 H         -2.41635609    0.87841100    0.97876102
 H         -2.13447309    2.23276997   -0.87829298
 H         -2.31522012   -2.07257199    1.30457401
 H          0.57838601   -3.29656196    1.40249705
 C          1.68625104    2.83905506    0.33135301
 H          0.88723898    3.27303195   -0.27162501
 H          2.58126092    3.45486498    0.25883201
 H          1.36605597    2.76529908    1.37413096
 H          2.31064701   -0.23389600   -2.12377691
