26
wb97x-d4 ma-def2-tzvp(-f) cpcm(dmso) E: -726.360594384375, G: -726.18418585
 C         -1.15680599    0.28841501   -0.36922401
 C         -0.97816700   -1.17341197    0.02079400
 O         -0.10591000    1.05805099    0.23414500
 C         -2.48359895    0.88310599    0.06900100
 H         -1.08738005    0.38347301   -1.45983601
 C          1.15197206    0.65040702   -0.12961900
 C          1.48959005   -0.80355698    0.10183700
 O          2.12706995    1.47950602    0.31482399
 C          0.37854400   -1.68234897   -0.45293799
 H          1.56686997   -0.97777802    1.18970597
 O          2.71240902   -1.15790498   -0.52636999
 O          0.54217499   -3.05529404   -0.11625000
 H          0.40910801   -1.64298403   -1.54568398
 O         -2.03292990   -1.91546595   -0.57298499
 H         -1.02177203   -1.25700903    1.11586201
 H         -2.46808791    1.95350099   -0.14662901
 O         -2.73844004    0.74801099    1.46284294
 H         -3.28118300    0.42378199   -0.52121001
 H         -3.06480503   -0.14338300    1.62899005
 H         -1.81161296   -2.85018706   -0.46885201
 H          0.61769903   -3.12833905    0.84422398
 C          1.97706497    2.86057901   -0.05161800
 H          2.89766502    3.35545301    0.25331300
 H          1.12597299    3.30659795    0.46474001
 H          1.84398103    2.94716191   -1.13286400
 H          3.39057398   -0.55038202   -0.20620300
