26
wb97x-d4 ma-def2-tzvp(-f) cpcm(dmso) E: -726.35485207369, G: -726.1786148699999
 C         -1.07426405    0.21628700   -0.45261601
 C         -0.87365299   -1.02702403    0.40658599
 O         -0.00180500    1.13988805   -0.21699201
 C         -2.36021900    0.96866500   -0.12225600
 H         -1.07703495   -0.05994900   -1.51357305
 C          1.20121503    0.57890600    0.13888100
 C          1.50475395   -0.78766400   -0.39017099
 O          2.23973393    1.44852901    0.04421900
 C          0.38383999   -1.77216804   -0.01459600
 H          2.44541407   -1.12885797    0.05038300
 O          1.60466599   -0.79088300   -1.82811105
 O          0.73737299   -2.61558890    1.07561696
 H          0.15502900   -2.36985207   -0.90271598
 O         -2.03630590   -1.83977902    0.27542701
 H         -0.75616199   -0.70564198    1.44906104
 H         -2.43719101    1.09614599    0.96504802
 O         -3.51246500    0.32536399   -0.64832997
 H         -2.30723500    1.95768499   -0.58157802
 H         -3.50202990   -0.57982898   -0.30658400
 H         -1.97562695   -2.55713391    0.91724300
 H          1.37058496   -3.27203798    0.76261598
 C          2.02478004    2.73960805    0.63265097
 H          2.98925805    3.24461198    0.61439401
 H          1.68026805    2.62805009    1.66418397
 H          1.29539299    3.31177211    0.05730800
 H          2.28168297   -0.14910799   -2.07609606
