26
wb97x-d4 ma-def2-tzvp(-f) cpcm(dmso) E: -726.355196695552, G: -726.17854081
 C         -1.21094000    0.11447800   -0.30029899
 C         -0.84336501   -1.37133098   -0.40462199
 O         -0.15541200    0.91472298    0.25849700
 C         -2.42707109    0.34225401    0.57887602
 H         -1.41467404    0.48683599   -1.30927801
 C          1.10083497    0.56462401   -0.15891001
 C          1.55686796   -0.83999801    0.13114101
 O          2.03348398    1.51466095    0.09792500
 C          0.34829301   -1.72098303    0.48402399
 H          2.24491096   -0.83467197    0.98497301
 O          2.30708289   -1.38152206   -0.95546901
 O         -0.06300200   -1.54261196    1.83292997
 H          0.62789702   -2.76435804    0.29938999
 O         -0.51413101   -1.64019501   -1.77081299
 H         -1.70508897   -1.97586203   -0.10435700
 H         -3.27054501   -0.20746700    0.15641600
 O         -2.80530405    1.71354198    0.61596400
 H         -2.22790194   -0.03672200    1.58662605
 H         -2.07173800    2.20872903    0.99985301
 H         -0.49491200   -2.59777904   -1.89112794
 H          0.62691998   -1.89581895    2.40654492
 C          1.70844495    2.83320403   -0.36812499
 H          0.89169198    3.26131105    0.21484300
 H          1.43116903    2.79947305   -1.42501402
 H          2.60901594    3.43149710   -0.23776300
 H          1.71747100   -1.37601304   -1.72222400
