26
wb97x-d4 ma-def2-tzvp(-f) cpcm(dmso) E: -726.355609474354, G: -726.17843864
 C         -1.13130605    0.02313000   -0.64553702
 C         -0.90345699   -1.19734597    0.23931500
 O         -0.08334700    0.98821002   -0.44300801
 C         -2.43958998    0.74105400   -0.36647001
 H         -1.11558104   -0.28694600   -1.69767904
 C          1.08265901    0.50419801    0.09558300
 C          1.53370202   -0.85889202   -0.33027500
 O          2.07750010    1.42695701    0.11352200
 C          0.39915699   -1.88195395   -0.15547200
 H          2.38129997   -1.15056598    0.29635200
 O          1.92595804   -0.88765502   -1.71700203
 O          0.71680200   -2.92160392    0.76371503
 H          0.24780300   -2.37805295   -1.11652899
 O         -2.01334596   -2.06554508    0.06665800
 H         -0.83530599   -0.87047601    1.28497005
 H         -2.51861811    1.59929097   -1.04330897
 O         -2.54780293    1.15678298    0.98962998
 H         -3.27136397    0.06505900   -0.56377101
 H         -1.82812595    1.77634394    1.16157603
 H         -1.80679798   -2.88869500    0.52706403
 H          0.86082399   -2.52789092    1.63396800
 C          1.71091795    2.72873592    0.59292901
 H          2.64141703    3.28393006    0.69993103
 H          1.21144199    2.64444399    1.56178403
 H          1.05696404    3.23455596   -0.11880200
 H          2.64819789   -0.25707000   -1.82914305
