26
wb97x-d4 ma-def2-tzvp(-f) cpcm(dmso) E: -726.354145095209, G: -726.17840337
 C         -1.43827498    0.37854600   -0.01513300
 C         -1.06812000   -1.09746099   -0.10743900
 O         -0.52142900    1.04598105    0.88648701
 C         -2.83298397    0.62069601    0.52986503
 H         -1.36529601    0.83832002   -1.00727904
 C          0.79380703    0.95743299    0.51433599
 C          1.27567899   -0.48076800    0.49258000
 O          1.05947101    1.81127906   -0.51131803
 C          0.39627799   -1.26473296   -0.48189500
 H          1.12281704   -0.89245802    1.49680400
 O          2.61946797   -0.65541899    0.07983200
 O          0.68175399   -2.65794301   -0.43927199
 H          0.55847901   -0.87774903   -1.49650395
 O         -1.91744196   -1.68439496   -1.08642006
 H         -1.23160005   -1.56872201    0.86891198
 H         -3.02231407    1.69974506    0.53944898
 O         -3.02080297    0.06510800    1.82633197
 H         -3.56055093    0.14601800   -0.12943400
 H         -2.39895391    0.49764499    2.42381001
 H         -1.65937996   -2.61023402   -1.17363203
 H          1.60561502   -2.77562690   -0.69147301
 C          2.43054509    2.14628196   -0.77655900
 H          2.89684606    1.39420199   -1.41150105
 H          2.98635507    2.23899794    0.15871100
 H          2.40946794    3.10802102   -1.28865302
 H          3.20056605   -0.38276401    0.79939300
