26
wb97x-d4 ma-def2-tzvp(-f) cpcm(dmso) E: -726.354422219741, G: -726.17833881
 C         -1.16712904   -0.06984800   -0.26715299
 C         -0.82187003   -1.22221994    0.67620099
 O         -0.17172600    0.96604598   -0.15980400
 C         -2.49269009    0.58335900    0.07359400
 H         -1.18308103   -0.42149001   -1.30560601
 C          1.11263704    0.53993100    0.06759300
 C          1.46151996   -0.84656203   -0.36005300
 O          2.05166602    1.47066700   -0.24595800
 C          0.50643599   -1.86439502    0.28332701
 H          2.48390293   -1.06442499   -0.03959300
 O          1.35271704   -1.01618600   -1.78968501
 O          1.05642402   -2.43413711    1.46418500
 H          0.31419200   -2.64348006   -0.46355999
 O         -1.87225795   -2.17574000    0.74499202
 H         -0.71942502   -0.81694901    1.68728995
 H         -3.29326200   -0.14882199   -0.02609700
 O         -2.79614592    1.65236294   -0.81665099
 H         -2.46615791    0.93755198    1.11129403
 H         -2.10412192    2.31798601   -0.72149903
 H         -1.95927298   -2.60070705   -0.11786200
 H          1.79197896   -3.00466204    1.21227098
 C          1.78710902    2.80291200    0.21563700
 H          2.69117093    3.37597394    0.01606900
 H          1.57860601    2.79373693    1.28880298
 H          0.94414502    3.24011397   -0.32179999
 H          1.91463494   -0.35101900   -2.20593500
