26
wb97x-d4 ma-def2-tzvp(-f) cpcm(dmso) E: -726.359717984527, G: -726.18392237
 C         -1.18247795    0.10087200   -0.16031000
 C         -0.87364602   -1.32868099    0.27618799
 O         -0.11586700    0.95967197    0.26831001
 C         -2.45922208    0.62299800    0.45733401
 H         -1.25588298    0.14227501   -1.25327694
 C          1.11056006    0.60184300   -0.22930200
 C          1.56630898   -0.80721599    0.06835100
 O          2.07632995    1.51814997    0.02141800
 C          0.46186000   -1.78232002   -0.30752599
 H          1.76039898   -0.89166498    1.15243196
 O          2.73979306   -1.13902903   -0.65662003
 O          0.74795997   -3.11771607    0.09124800
 H          0.37514099   -1.81184494   -1.39744794
 O         -1.92092597   -2.17221999   -0.17742300
 H         -0.81010401   -1.35572898    1.37409604
 H         -3.26064110   -0.09465500    0.26150399
 O         -2.75922608    1.88953304   -0.12479600
 H         -2.32148600    0.71486503    1.54122305
 H         -3.57326007    2.21384597    0.27574599
 H         -1.61626697   -3.08229208   -0.06513800
 H          0.92862302   -3.12201190    1.04072905
 C          1.78568995    2.85387897   -0.42037499
 H          1.50385106    2.84393191   -1.47621906
 H          2.70302892    3.42423201   -0.28380001
 H          0.98318601    3.29115605    0.17508399
 H          3.40627503   -0.47187299   -0.45142701
