26
wb97x-d4 ma-def2-tzvp(-f) cpcm(dmso) E: -726.354125960169, G: -726.17810751
 C         -1.28611398    0.01835900   -0.57000500
 C         -0.95162398   -1.37314796   -0.00355000
 O         -0.10261900    0.71229601   -1.05746901
 C         -2.03362799    0.89543098    0.42138499
 H         -1.90472996   -0.10231600   -1.46205401
 C          1.03285801    0.63557798   -0.31113201
 C          1.40148795   -0.68311697    0.29277200
 O          1.33227098    1.71818995    0.46847099
 C          0.49476600   -1.75318599   -0.29029301
 H          1.24422896   -0.64962500    1.38099301
 O          2.78187490   -0.94103599    0.03148700
 O          0.83103400   -2.98841500    0.32464200
 H          0.65529197   -1.81520903   -1.37503695
 O         -1.85206103   -2.36538196   -0.48617601
 H         -1.08610797   -1.37122095    1.08043396
 H         -2.25406194    1.86113298   -0.04606600
 O         -1.33019400    1.07296801    1.64562905
 H         -2.97937202    0.40642101    0.66945201
 H         -0.53075099    1.58876896    1.47272396
 H         -1.79756999   -2.38779211   -1.45055699
 H          0.18202101   -3.64202690    0.03525600
 C          1.28660905    2.98774409   -0.20697500
 H          0.27796301    3.19918203   -0.56608701
 H          1.98815501    2.98673296   -1.04449201
 H          1.58235896    3.73183393    0.53049600
 H          3.01791096   -1.74216604    0.51614898
