26
wb97x-d4 ma-def2-tzvp(-f) cpcm(dmso) E: -726.354998950484, G: -726.17793105
 C         -1.05304897   -0.02901900   -0.10988900
 C         -0.91470301   -1.53936994    0.15389700
 O         -0.03052600    0.71095502    0.60525900
 C         -2.38364005    0.52022398    0.35429800
 H         -0.92364401    0.16427200   -1.17884600
 C          1.24985099    0.40545100    0.22392499
 C          1.52843797   -1.02623999   -0.13024800
 O          1.88875198    1.30041206   -0.57301098
 C          0.51290500   -1.89614201    0.61021900
 H          2.55050302   -1.29144096    0.15542801
 O          1.33427501   -1.30040097   -1.53161895
 O          0.66963500   -1.77732003    2.01711798
 H          0.69157302   -2.94498491    0.36848199
 O         -1.30439496   -2.27349591   -1.00050998
 H         -1.59715605   -1.84421396    0.95136797
 H         -3.18490195   -0.05120300   -0.11931900
 O         -2.56561995    1.88176703   -0.01492900
 H         -2.46308708    0.39607200    1.44142604
 H         -1.86649096    2.39529300    0.40767500
 H         -0.64259702   -2.08457899   -1.68153596
 H          0.50059497   -0.85927999    2.26613498
 C          1.59376299    2.68417501   -0.33180699
 H          0.55258298    2.90316105   -0.57214499
 H          2.25482011    3.24951506   -0.98612601
 H          1.79408097    2.93557811    0.71249801
 H          1.80803502   -0.62918502   -2.03774190
