26
wb97x-d4 ma-def2-tzvp(-f) cpcm(dmso) E: -726.354566224879, G: -726.17778798
 C         -1.03986800    0.09748800   -0.37163800
 C         -0.98928899   -1.42808902   -0.16506100
 O         -0.08944100    0.77555799    0.48670200
 C         -2.39598894    0.69819599   -0.05510800
 H         -0.78590399    0.32347199   -1.41183305
 C          1.21864402    0.40213099    0.32367501
 C          1.48545003   -1.00946200   -0.09993400
 O          2.05109596    1.31330204   -0.24387500
 C          0.35173100   -1.87801802    0.44046101
 H          2.45125699   -1.33855402    0.29392901
 O          1.46663201   -1.17847395   -1.53147805
 O          0.32896101   -1.85690606    1.86125398
 H          0.52137101   -2.91647506    0.15163800
 O         -1.26328397   -2.08770394   -1.39642000
 H         -1.77738297   -1.73464501    0.52408701
 H         -2.38439393    1.76733303   -0.29323900
 O         -2.77652907    0.48943201    1.30015600
 H         -3.14903998    0.21110900   -0.67861098
 H         -2.14468193    0.95978701    1.85721695
 H         -0.51799399   -1.89738095   -1.98374903
 H          0.16815300   -0.94989198    2.15207911
 C          1.83361304    2.68242097    0.12589900
 H          1.87036395    2.78841996    1.21306705
 H          0.87151402    3.03479290   -0.24835500
 H          2.64254189    3.24914289   -0.33185300
 H          2.05246902   -0.51698202   -1.91901100
