26
wb97x-d4 ma-def2-tzvp(-f) cpcm(dmso) E: -726.353394305008, G: -726.17773319
 C         -1.19683802    0.13445900   -0.67486602
 C         -0.97873199   -1.20261097    0.03058700
 O          0.03758700    0.84329200   -0.94099700
 C         -2.15844202    1.05940795    0.05383000
 H         -1.61668396   -0.08679300   -1.66004097
 C          1.17415094    0.56367201   -0.24592000
 C          1.43274200   -0.82623702    0.24569000
 O          1.64937603    1.53796995    0.57956398
 C          0.38379499   -1.76582897   -0.32834199
 H          1.36249804   -0.85889000    1.33908796
 O          2.75992799   -1.27479899   -0.04836900
 O          0.47945300   -3.06274009    0.24237800
 H          0.48756301   -1.82416606   -1.41988003
 O         -2.04032493   -2.05358505   -0.37897000
 H         -1.00903702   -1.07801294    1.12106800
 H         -2.27068996    1.97417402   -0.53186899
 O         -1.68950903    1.44902503    1.33987105
 H         -3.13663507    0.57066000    0.12073800
 H         -1.92769504    0.76680797    1.97650397
 H         -1.88396096   -2.91660810    0.02496700
 H          1.33779597   -3.42950892   -0.00241100
 C          1.48869002    2.88195395    0.11147700
 H          1.93125200    2.99366307   -0.88218302
 H          2.01349711    3.51508307    0.82527602
 H          0.43273500    3.15442300    0.07744700
 H          2.93748498   -1.06481302   -0.97463799
