26
wb97x-d4 ma-def2-tzvp(-f) cpcm(dmso) E: -726.353990304245, G: -726.17710241
 C         -1.05925405    0.08588700   -0.34644899
 C         -0.80748898   -1.15427101    0.51369601
 O         -0.01687900    1.05476797   -0.15632901
 C         -2.33904099    0.82573599    0.04024000
 H         -1.09204102   -0.19945300   -1.40433204
 C          1.23029900    0.55135602    0.12029700
 C          1.53617501   -0.81954497   -0.38832599
 O          2.22686911    1.45312905   -0.07969300
 C          0.51323497   -1.82641995    0.15544000
 H          2.53550100   -1.10397398   -0.04733300
 O          1.47095096   -0.88560498   -1.82633603
 O          0.98424500   -2.46601892    1.33729899
 H          0.32446900   -2.56454396   -0.63024098
 O         -1.84577894   -2.11244011    0.35606900
 H         -0.74365300   -0.82668197    1.56065905
 H         -2.30985808    1.05922401    1.10704601
 O         -3.50974202    0.03716200   -0.17483200
 H         -2.39188790    1.76278603   -0.52135199
 H         -3.68496990   -0.00018200   -1.12313104
 H         -2.68712211   -1.62918699    0.33946201
 H          1.71418905   -3.04809308    1.09535396
 C          1.99869597    2.76170492    0.46257001
 H          1.21796298    3.28191209   -0.09456400
 H          2.94170904    3.29764390    0.36670500
 H          1.71627402    2.68713307    1.51609099
 H          2.07714510   -0.22202601   -2.17800999
