26
wb97x-d4 ma-def2-tzvp(-f) cpcm(dmso) E: -726.354752961133, G: -726.17685735
 C         -1.17124605   -0.08186600   -0.51990002
 C         -0.85584301   -1.54255402   -0.19278100
 O         -0.02571500    0.57114899   -1.13395703
 C         -1.70381498    0.73016697    0.65365303
 H         -1.92636704   -0.08615300   -1.30983198
 C          1.16269398    0.44514000   -0.47519100
 C          1.58367097   -0.93145001   -0.06072700
 O          1.51921904    1.42916000    0.39366800
 C          0.44023499   -1.69585204    0.61425501
 H          2.42507696   -0.85629100    0.63273400
 O          1.94190204   -1.71009195   -1.21430695
 O          0.30691499   -1.16093695    1.92307794
 H          0.70411497   -2.75837398    0.65064901
 O         -0.79323500   -2.32167506   -1.38410699
 H         -1.68512106   -1.94375002    0.39704901
 H         -2.46869898    0.13845600    1.16965401
 O         -2.23804498    1.98369598    0.23236001
 H         -0.91070402    0.95323801    1.36464596
 H         -3.01120901    1.81309998   -0.31864899
 H          0.09378300   -2.20209908   -1.75766504
 H         -0.34430301   -1.68861103    2.40038109
 C          1.17521203    2.76457500   -0.00326600
 H          0.09302900    2.89298010   -0.03236100
 H          1.60295105    2.98532701   -0.98491299
 H          1.61170602    3.42089510    0.74786699
 H          2.47379208   -1.14817905   -1.79233694
