26
wb97x-d4 ma-def2-tzvp(-f) cpcm(dmso) E: -726.354265742771, G: -726.1768225
 C         -1.10030496    0.10311700   -0.18098700
 C         -0.93735802   -1.38566303    0.19738200
 O          0.02579300    0.88162100    0.25922900
 C         -2.31446600    0.75506502    0.46798199
 H         -1.17197895    0.17976700   -1.27173495
 C          1.21485400    0.49960601   -0.31868699
 C          1.47269797   -0.98263597   -0.39319599
 O          2.27061296    1.22941697    0.11167700
 C          0.52062303   -1.69559395    0.56944501
 H          2.51136899   -1.17649496   -0.11033100
 O          1.21098399   -1.51588297   -1.70160604
 O          0.81806701   -1.33747804    1.91271102
 H          0.66987002   -2.77452803    0.49601099
 O         -1.39568603   -2.23030710   -0.85120302
 H         -1.55977201   -1.61461997    1.06492305
 H         -2.21827888    0.69014001    1.55466998
 O         -3.51548696    0.07975900    0.12090200
 H         -2.35635090    1.81181002    0.18427099
 H         -3.68798494    0.23203699   -0.81573099
 H         -0.74442899   -2.15758300   -1.56487703
 H          0.60837799   -0.40237999    2.03519511
 C          2.07254291    2.65229893    0.14034200
 H          3.05165410    3.08723998    0.33397901
 H          1.37834597    2.93008804    0.93436700
 H          1.69197297    2.99677396   -0.82452101
 H          1.48433197   -0.85557199   -2.35021305
