26
wb97x-d4 ma-def2-tzvp(-f) cpcm(dmso) E: -726.353870562864, G: -726.17676924
 C         -1.05704105    0.13169999   -0.24546701
 C         -0.88037097   -1.27482295    0.34038800
 O          0.00756200    0.97361898    0.20847300
 C         -2.35420990    0.78700799    0.20809200
 H         -1.03631306    0.07051000   -1.33834600
 C          1.22674096    0.61175197   -0.31345999
 C          1.46138406   -0.85421401   -0.57243901
 O          2.27002811    1.24767196    0.27680400
 C          0.59098297   -1.70993495    0.35424399
 H          2.51743603   -1.06222296   -0.36844400
 O          1.13566601   -1.23557496   -1.91167796
 O          1.05914998   -1.58868301    1.69496000
 H          0.64000702   -2.75052691    0.01825000
 O         -1.63825798   -2.22440791   -0.40054500
 H         -1.21544802   -1.25940502    1.38448596
 H         -2.36683702    0.85214001    1.29857695
 O         -3.47747207   -0.00864800   -0.17519499
 H         -2.42659593    1.79689002   -0.20472400
 H         -3.68527293    0.18573700   -1.09726298
 H         -2.54574895   -1.88671100   -0.42400801
 H          1.95272100   -1.95105195    1.73640299
 C          2.10591793    2.66021395    0.47020099
 H          3.07998490    3.03778005    0.77690500
 H          1.36854899    2.86280799    1.24823499
 H          1.79799402    3.13499093   -0.46502700
 H          1.46944404   -0.54661602   -2.49941993
