26
wb97x-d4 ma-def2-tzvp(-f) cpcm(dmso) E: -726.354261178124, G: -726.17676432
 C         -1.10449696    0.10392200   -0.14440300
 C         -0.93216801   -1.38381696    0.23349500
 O          0.03537500    0.88196898    0.25936699
 C         -2.29893398    0.75901598    0.53691602
 H         -1.20823002    0.17715900   -1.23280299
 C          1.20467603    0.49764499   -0.35620600
 C          1.45714903   -0.98531097   -0.43842500
 O          2.27490211    1.22590399    0.03975400
 C          0.53699303   -1.69489205    0.55718100
 H          2.50437808   -1.18091094   -0.19061200
 O          1.15003204   -1.51959598   -1.73639095
 O          0.87929899   -1.33215797    1.88831401
 H          0.68248397   -2.77424192    0.48229200
 O         -1.42728305   -2.23050404   -0.79645401
 H         -1.52540195   -1.60885894    1.12233603
 H         -2.17280197    0.69655102    1.62068498
 O         -3.50935411    0.08387200    0.22439601
 H         -2.34776497    1.81509697    0.25174400
 H         -3.70752692    0.23451000   -0.70740902
 H         -0.80032802   -2.16152096   -1.53180099
 H          0.67303997   -0.39673099    2.01384902
 C          2.08102703    2.64933205    0.06937300
 H          1.67453396    2.99140596   -0.88573498
 H          3.06613398    3.08255911    0.23423000
 H          1.40975904    2.93140197    0.88140500
 H          1.40450704   -0.86180300   -2.39509892
