26
wb97x-d4 ma-def2-tzvp(-f) cpcm(dmso) E: -726.353928977, G: -726.17616499
 C         -1.56195605   -0.36558601   -0.45556799
 C         -0.87225699   -1.62786806    0.05998500
 O         -0.68083400    0.38795301   -1.34051394
 C         -2.11043096    0.55421001    0.62546402
 H         -2.38215995   -0.67079699   -1.10747898
 C          0.55928999    0.66499102   -0.85511500
 C          1.35310996   -0.50300300   -0.34333599
 O          0.59918600    1.88623798   -0.25385901
 C          0.52816898   -1.35371101    0.62997103
 H          2.25653291   -0.16515000    0.16679600
 O          1.69326603   -1.37517703   -1.43232799
 O          0.47855699   -0.62794298    1.84966302
 H          1.03529704   -2.31455994    0.76944798
 O         -0.79373002   -2.61188102   -0.96857500
 H         -1.49443603   -2.05646205    0.85158801
 H         -2.84421492    0.00120400    1.21677899
 O         -2.79436207    1.66444194    0.04977600
 H         -1.31536400    0.89469802    1.29000604
 H         -2.15065408    2.14460897   -0.48565501
 H         -0.03949700   -2.37482190   -1.53009105
 H          0.05754900   -1.18363202    2.51596093
 C          1.88870502    2.36165500    0.15220000
 H          2.21022892    1.86865199    1.07231903
 H          1.77407706    3.42937803    0.33163300
 H          2.62448692    2.19551492   -0.63877398
 H          1.98143995   -0.82295102   -2.17029405
