26
wb97x-d4 ma-def2-tzvp(-f) cpcm(dmso) E: -726.35317658801, G: -726.17553787
 C         -1.14042497    0.07648700   -0.59173697
 C         -0.91678101   -1.40841699   -0.31145099
 O          0.05875200    0.71348298   -1.10895503
 C         -1.66922903    0.89278698    0.58889103
 H         -1.85712194    0.14409800   -1.41378605
 C          1.22272694    0.47156301   -0.43847400
 C          1.55086398   -0.94926000   -0.09757400
 O          1.62524295    1.38461006    0.48609000
 C          0.35115099   -1.68127203    0.51000202
 H          2.38005710   -0.96225297    0.61451101
 O          1.88887703   -1.68076801   -1.28682399
 O          0.22848500   -1.22261405    1.84888995
 H          0.55241299   -2.75797796    0.48477200
 O         -0.87976199   -2.14935589   -1.52974999
 H         -1.78249705   -1.77195299    0.24731299
 H         -0.96896398    0.86459303    1.42171001
 O         -2.90459394    0.37386101    1.07418203
 H         -1.78635299    1.93079495    0.26154199
 H         -3.58342791    0.53930902    0.40935299
 H          0.01450600   -2.05827498   -1.89271200
 H         -0.49354401   -1.70529199    2.26840901
 C          1.43611300    2.76002693    0.12637500
 H          1.91460598    2.96612501   -0.83474499
 H          1.91177106    3.34414411    0.91238099
 H          0.37584499    3.00872302    0.06986800
 H          2.47128797   -1.12316895   -1.81828296
