26
wb97x-d4 ma-def2-tzvp(-f) cpcm(dmso) E: -726.35955686659, G: -726.1834254099999
 C         -1.06279898    0.37168899   -0.13600200
 C         -0.95786601   -1.14657402   -0.04380700
 O         -0.13903300    0.96319997    0.81345999
 C         -2.43788099    0.91594702    0.19927400
 H         -0.79727203    0.69629401   -1.14918399
 C          1.16935897    0.60622698    0.61435699
 C          1.42346394   -0.87891400    0.68340701
 O          1.81688905    1.20340204   -0.42451799
 C          0.47675401   -1.58609498   -0.29453301
 H          1.19039595   -1.22419202    1.69402003
 O          2.77442598   -1.22615302    0.43320999
 O          0.52108997   -2.99881697   -0.13728701
 H          0.75836098   -1.31312203   -1.32073200
 O         -1.84030104   -1.69688106   -1.01379597
 H         -1.25373697   -1.46522105    0.96296102
 H         -2.41295910    2.00724506    0.10475700
 O         -2.88463712    0.53149903    1.49402905
 H         -3.15969896    0.52220601   -0.51687700
 H         -2.27296805    0.90453601    2.14023709
 H         -1.70009005   -2.65201902   -1.01852703
 H          1.41179395   -3.29349995   -0.36296999
 C          1.60884202    2.61741900   -0.55695099
 H          0.57237101    2.83393407   -0.82002503
 H          2.27079511    2.94639301   -1.35582602
 H          1.86750102    3.12255406    0.37663200
 H          3.05719995   -0.76105702   -0.36530799
