27
wb97x-d4 ma-def2-tzvp(-f) cpcm(dmso) E: -727.031245225659, G: -726.83889439
 C         -0.75073302    0.61929899   -0.30701199
 C         -1.08944798   -0.85395199   -0.54395300
 O          0.16606000    0.76192898    0.78135997
 C         -1.95466995    1.49763405   -0.03578100
 H         -0.29166999    0.99949700   -1.22763205
 C          1.40034604    0.10515400    0.55941099
 C          1.20437801   -1.39459705    0.32212901
 H          1.97109497    0.26846099    1.48012805
 O          2.08653808    0.61956400   -0.54891098
 C          0.20449100   -1.61845398   -0.81517702
 H          2.16909790   -1.82858598    0.05162500
 O          0.78799701   -2.03331900    1.52255404
 O         -0.03083000   -3.00053191   -1.03866303
 H          0.63885701   -1.22570300   -1.73676395
 O         -1.72901297   -1.46008897    0.58462101
 H         -1.74165499   -0.92373800   -1.42284906
 H         -1.61655402    2.52502894    0.13273899
 O         -2.66869593    1.02069104    1.11245799
 H         -2.59928489    1.47666299   -0.92014599
 H         -3.53071499    1.45122004    1.13592899
 H         -2.33282208   -0.79385900    0.95627898
 H         -0.29189900   -3.39136600   -0.19491300
 C          2.45923996    1.98781800   -0.39346999
 H          3.02232599    2.12814808    0.53609300
 H          1.57985795    2.63776588   -0.38491499
 H          3.09003901    2.24182200   -1.24498403
 H         -0.15233400   -1.81650198    1.63984299
