27
wb97x-d4 ma-def2-tzvp(-f) cpcm(dmso) E: -727.029100028018, G: -726.8369978
 C         -0.83045799    0.65897399   -0.22436100
 C         -1.16468203   -0.81394899   -0.45009899
 O          0.07876800    0.81198603    0.87038898
 C         -2.04674101    1.50882900    0.11924500
 H         -0.37143901    1.04600799   -1.14277005
 C          1.31616902    0.15640400    0.67540598
 C          1.12191105   -1.34315300    0.46629101
 H          1.87639999    0.34000701    1.59869695
 O          2.01438308    0.64251101   -0.43587500
 C          0.12913400   -1.59754300   -0.67148203
 H          2.08906889   -1.79259706    0.22421800
 O          0.63747799   -1.85886598    1.70893800
 O         -0.13149400   -2.98845196   -0.81360298
 H          0.58739400   -1.25645995   -1.60276103
 O         -1.91770899   -1.37959599    0.62074900
 H         -1.79284799   -0.89674199   -1.33935404
 H         -2.53536296    1.10980594    1.00858903
 O         -3.01492500    1.48960996   -0.92401099
 H         -1.71425402    2.53037810    0.33110800
 H         -2.65466905    1.97008204   -1.67892802
 H         -1.32760203   -1.42501700    1.38921905
 H         -0.87506503   -3.19808793   -0.23170200
 C          2.38189411    2.01564789   -0.30810300
 H          1.50146496    2.66343498   -0.33497101
 H          3.03021097    2.24768496   -1.15249300
 H          2.92486811    2.18074703    0.62914801
 H          0.68810302   -2.82164693    1.66851604
