27
wb97x-d4 ma-def2-tzvp(-f) cpcm(dmso) E: -727.029309792449, G: -726.83699272
 C         -0.75182903    0.72017401   -0.16052900
 C         -1.15652597   -0.73368698   -0.36663100
 O          0.25812799    0.82905400    0.84691101
 C         -1.89436305    1.61544502    0.30463001
 H         -0.36982501    1.09838998   -1.11515701
 C          1.44897604    0.13375700    0.53447402
 C          1.18024099   -1.35876298    0.33431000
 H          2.09696889    0.28652799    1.40464604
 O          2.06010103    0.61147898   -0.63166398
 C          0.08429600   -1.56151903   -0.71180397
 H          2.10324502   -1.83722401    0.00126500
 O          0.82928699   -1.97100699    1.57079899
 O         -0.23766600   -2.93932009   -0.85438502
 H          0.45833001   -1.21675599   -1.67867506
 O         -1.77863598   -1.20406103    0.83481503
 H         -1.86591101   -0.79243499   -1.19843602
 H         -2.25007010    1.28390896    1.28354502
 O         -2.95682502    1.64674997   -0.64205498
 H         -1.51747799    2.63568211    0.39868701
 H         -3.50261688    0.86318600   -0.51131701
 H         -2.20705104   -2.04530096    0.63570899
 H         -0.16997600   -3.34408498    0.02093700
 C          2.46627903    1.97589695   -0.53409803
 H          3.08868694    2.12774301    0.35482299
 H          1.60071599    2.64239812   -0.48783699
 H          3.04666090    2.19663501   -1.42939401
 H         -0.06314500   -1.66286600    1.79643297
