27
wb97x-d4 ma-def2-tzvp(-f) cpcm(dmso) E: -727.029075344114, G: -726.83663847
 C         -0.78366297    0.71949500   -0.26111400
 C         -1.15221405   -0.75007200   -0.45732400
 O          0.14722000    0.87176001    0.81542498
 C         -1.97410095    1.59858298    0.10294000
 H         -0.33965999    1.08463001   -1.19437695
 C          1.36454594    0.18205300    0.61769497
 C          1.12857795   -1.31652403    0.45070899
 H          1.94429302    0.37416399    1.52736902
 O          2.05666089    0.62285399   -0.51633799
 C          0.11907800   -1.57180703   -0.67084002
 H          2.08080411   -1.79871905    0.21180300
 O          0.64089298   -1.78663003    1.70957506
 O         -0.18067200   -2.95788503   -0.77672899
 H          0.57643598   -1.26469898   -1.61439002
 O         -1.91850603   -1.27425301    0.62500799
 H         -1.78267002   -0.84031600   -1.34550405
 H         -2.39236808    1.27419698    1.05961895
 O         -2.96891809    1.59199202   -0.91556001
 H         -1.62652004    2.62846208    0.20654801
 H         -3.50767398    0.80000299   -0.80792099
 H         -1.33236694   -1.30610096    1.39726496
 H         -0.92183000   -3.13244796   -0.18007500
 C          2.45474505    1.99075103   -0.42836800
 H          3.09782100    2.18726397   -1.28585100
 H          3.01223612    2.16802907    0.49823400
 H          1.58778906    2.65628505   -0.46201599
 H          0.67006201   -2.75106502    1.69421506
