27
wb97x-d4 ma-def2-tzvp(-f) cpcm(dmso) E: -727.026845488658, G: -726.83569784
 C         -0.83065802    0.67953700   -0.19801299
 C         -1.24563706   -0.78887600   -0.31367299
 O          0.14343500    0.83934498    0.83921999
 C         -1.97806704    1.60221601    0.16877300
 H         -0.40879300    0.99898899   -1.15798199
 C          1.34294403    0.13306300    0.60395700
 C          1.09248996   -1.36298299    0.42885801
 H          1.95071900    0.31171101    1.49804497
 O          2.00968599    0.57315701   -0.54646897
 C          0.00726700   -1.60653901   -0.62151498
 H          2.02882600   -1.83543003    0.11376900
 O          0.69401199   -1.86726105    1.70416999
 O         -0.33282301   -2.98965311   -0.67594701
 H          0.38841000   -1.26881695   -1.59072101
 O         -1.92831695   -1.23676300    0.85045701
 H         -1.94833803   -0.88957101   -1.14330602
 H         -2.41554499    1.28248298    1.11890304
 O         -2.94177890    1.53973401   -0.88095897
 H         -1.58657396    2.61897397    0.28144199
 H         -3.68954897    2.09342408   -0.63104600
 H         -1.26056504   -1.35287297    1.54240298
 H          0.37556601   -3.45292306   -1.13899899
 C          2.41763711    1.93827605   -0.46732101
 H          2.99818802    2.11178589    0.44571200
 H          1.55436695    2.60907197   -0.48002499
 H          3.04120111    2.13131309   -1.33970594
 H          0.52189600   -2.81139207    1.58997405
