27
wb97x-d4 ma-def2-tzvp(-f) cpcm(dmso) E: -727.026859386145, G: -726.83485477
 C         -0.76933002    0.62341303   -0.46412501
 C         -1.08071899   -0.85384798   -0.69192702
 O          0.00939200    0.82453299    0.71694601
 C         -2.00177193    1.50165904   -0.33447400
 H         -0.21080700    0.97454298   -1.34025395
 C          1.27091599    0.18929100    0.67203802
 C          1.14388502   -1.32140398    0.49742001
 H          1.73146296    0.41776600    1.63956499
 O          2.06553006    0.66297799   -0.38010600
 C          0.21437199   -1.66431105   -0.67492503
 H          2.13990903   -1.71827304    0.27113599
 O          0.69100398   -1.83804703    1.74080396
 O         -0.06689500   -3.06008911   -0.68962502
 H          0.76001698   -1.43815696   -1.59496295
 O         -1.97581804   -1.41411996    0.26618499
 H         -1.52719104   -0.94168001   -1.69122601
 H         -1.69392002    2.54924393   -0.26877299
 O         -2.81210399    1.15544796    0.79544902
 H         -2.62856197    1.37456298   -1.21908104
 H         -2.33170700    1.41212106    1.59276998
 H         -2.50608206   -0.68898100    0.63528103
 H         -0.86229599   -3.19036007   -0.15482301
 C          2.39735007    2.04450393   -0.25476399
 H          1.51119101    2.67602706   -0.36272401
 H          3.10483003    2.27152109   -1.05185902
 H          2.86384010    2.23930097    0.71750897
 H          0.56350398   -2.78764105    1.62854695
