27
wb97x-d4 ma-def2-tzvp(-f) cpcm(dmso) E: -727.030731775216, G: -726.83774624
 C         -0.75386900    0.72316998   -0.37993199
 C         -1.12308300   -0.74306798   -0.57887697
 O          0.10492800    0.88245302    0.75285703
 C         -1.95057905    1.64668798   -0.21022899
 H         -0.23114701    1.04679704   -1.28796101
 C          1.32787800    0.18185300    0.63470101
 C          1.09545398   -1.32023704    0.46323299
 H          1.85191703    0.37410200    1.57730198
 O          2.09215689    0.61505800   -0.45628300
 C          0.15091600   -1.58085001   -0.70984602
 H          2.05735493   -1.80070102    0.27526000
 O          0.59040600   -1.89025700    1.66576397
 O         -0.15205599   -2.96483493   -0.82274902
 H          0.65186697   -1.28202200   -1.63373804
 O         -1.90808797   -1.17464197    0.54592001
 H         -1.71547401   -0.83509898   -1.49455905
 H         -1.59551597    2.67910004   -0.17808101
 O         -2.69766593    1.43424702    0.98157799
 H         -2.58629203    1.53116596   -1.09754205
 H         -2.81867695    0.47739801    1.06678605
 H         -2.32095504   -2.01732206    0.32074600
 H         -0.19141500   -3.32482004    0.07387300
 C          2.52075791    1.97101104   -0.33658499
 H          1.67193997    2.65857697   -0.38361600
 H          3.19222689    2.16440511   -1.17257094
 H          3.05627394    2.12073398    0.60758501
 H         -0.31925899   -1.57290804    1.77696300
