27
wb97x-d4 ma-def2-tzvp(-f) cpcm(dmso) E: -727.029973503312, G: -726.8376346699999
 C         -0.85634899    0.59848702   -0.16340201
 C         -1.17007995   -0.84851301   -0.52241099
 O          0.07529300    0.66079301    0.92158097
 C         -2.09451604    1.37804496    0.24187800
 H         -0.41599101    1.07161200   -1.04965997
 C          1.32017601    0.05776600    0.63215798
 C          1.14870596   -1.42132497    0.28168201
 H          1.90112495    0.16000700    1.55537701
 O          1.98038602    0.67198700   -0.44038501
 C          0.13181600   -1.58634102   -0.84805202
 H          2.11572409   -1.82117999   -0.02917600
 O          0.75626200   -2.16284490    1.43250406
 O         -0.11138300   -2.96178603   -1.11485004
 H          0.54712802   -1.14833903   -1.75881696
 O         -1.84394801   -1.45159304    0.58874500
 H         -1.82196903   -0.86158103   -1.40232301
 H         -2.88191509    1.19492805   -0.49830100
 O         -1.84051299    2.77374601    0.37750000
 H         -2.44735909    1.03296804    1.21409202
 H         -1.62000299    3.12517095   -0.49324399
 H         -2.19103003   -2.30292511    0.29574901
 H         -0.06252200   -3.43041110   -0.27040499
 C          2.31432891    2.03555202   -0.18604399
 H          2.88143802    2.12307692    0.74750799
 H          1.41608500    2.65594101   -0.12293500
 H          2.92949200    2.37045693   -1.02064300
 H         -0.16038300   -1.91369998    1.63187599
