27
wb97x-d4 ma-def2-tzvp(-f) cpcm(dmso) E: -727.030012334673, G: -726.83762049
 C         -0.84672201    0.59687197   -0.22447599
 C         -1.14668906   -0.85669899   -0.56648898
 O          0.02260300    0.67997402    0.90965998
 C         -2.10040998    1.39162600    0.09088000
 H         -0.35429201    1.04691100   -1.09545898
 C          1.27917099    0.06797600    0.70207798
 C          1.12420499   -1.41705704    0.37029999
 H          1.80762100    0.18627000    1.65452397
 O          1.99818802    0.66158098   -0.34317401
 C          0.16824301   -1.60286105   -0.80817902
 H          2.10585499   -1.82295299    0.11866000
 O          0.67140400   -2.13678503    1.51244605
 O         -0.06405900   -2.98241997   -1.06104100
 H          0.63141298   -1.18317199   -1.70453203
 O         -1.87780905   -1.43295097    0.52244902
 H         -1.75264299   -0.88906598   -1.47820306
 H         -2.84705305    1.18991804   -0.68598503
 O         -1.84628904    2.78951907    0.19945900
 H         -2.50746608    1.07642996    1.05201900
 H         -1.57122505    3.11401701   -0.66614997
 H         -2.21396899   -2.28942108    0.23168100
 H         -0.05910100   -3.43688893   -0.20762999
 C          2.33626699    2.02348709   -0.08662800
 H          1.44347799    2.65490890   -0.06997600
 H          2.99319410    2.34289098   -0.89520401
 H          2.86101389    2.11362004    0.87124199
 H         -0.25492999   -1.88572705    1.65772605
