27
wb97x-d4 ma-def2-tzvp(-f) cpcm(dmso) E: -727.029124988519, G: -726.8374607
 C         -0.84653300    0.59599501   -0.31802499
 C         -1.12668598   -0.87042099   -0.63864303
 O         -0.00771000    0.71036100    0.83806700
 C         -2.11324906    1.37456203   -0.04583700
 H         -0.33922899    1.04113805   -1.18198705
 C          1.25478899    0.09716700    0.68305099
 C          1.11335599   -1.39398003    0.38839200
 H          1.75713694    0.24632600    1.64515197
 O          2.00066590    0.65726101   -0.36096501
 C          0.19757400   -1.61330700   -0.81820899
 H          2.10382700   -1.81012404    0.18472201
 O          0.56546801   -1.98427498    1.57039404
 O         -0.01809400   -2.99943304   -1.04634798
 H          0.70020199   -1.21533799   -1.70283699
 O         -1.93538201   -1.50403202    0.35126799
 H         -1.69524503   -0.92174298   -1.57064903
 H         -2.84201789    1.14083803   -0.83087999
 O         -1.79822099    2.76731396   -0.04992400
 H         -2.53056788    1.07448602    0.91965699
 H         -2.58080292    3.25076008    0.23700500
 H         -1.39272404   -1.58477402    1.15128195
 H         -0.77113801   -3.26563311   -0.50129598
 C          2.33571506    2.02580690   -0.13683601
 H          3.00669789    2.32124496   -0.94295800
 H          2.84438396    2.14226604    0.82676899
 H          1.44373000    2.65805697   -0.15354100
 H          0.67405403   -2.94052196    1.50317597
