27
wb97x-d4 ma-def2-tzvp(-f) cpcm(dmso) E: -727.028636510571, G: -726.8372950199999
 C         -0.74939698    0.66570801   -0.20419900
 C         -1.12298095   -0.79544598   -0.42037100
 O          0.20598200    0.79475302    0.85296500
 C         -1.92403901    1.54323602    0.19150101
 H         -0.32255301    1.04269302   -1.14045894
 C          1.42093503    0.11515100    0.60390002
 C          1.18627501   -1.38145006    0.39219999
 H          2.01987004    0.27799401    1.50672400
 O          2.08583093    0.60104299   -0.52879697
 C          0.14671800   -1.60185003   -0.70669699
 H          2.13272405   -1.84413397    0.10574200
 O          0.78484100   -1.99896896    1.61066306
 O         -0.14192300   -2.98512912   -0.86559099
 H          0.56157202   -1.24992096   -1.65416706
 O         -1.78284895   -1.27445996    0.75716799
 H         -1.79810905   -0.86474699   -1.27772403
 H         -2.36629200    1.16999900    1.11921096
 O         -2.87173700    1.51040900   -0.87305599
 H         -1.55576897    2.56131792    0.35768601
 H         -3.65165997    2.00148392   -0.59251899
 H         -2.21972394   -2.10507798    0.53490800
 H         -0.12842099   -3.38545609    0.01420500
 C          2.47334003    1.96895301   -0.40689299
 H          1.60020101    2.62717700   -0.40394700
 H          3.09786606    2.19787002   -1.26992905
 H          3.04684210    2.12381506    0.51388699
 H         -0.12754300   -1.71496403    1.78358996
