27
wb97x-d4 ma-def2-tzvp(-f) cpcm(dmso) E: -727.030425481325, G: -726.8385934199999
 C         -1.09829104    0.32067999   -0.46497601
 C         -0.90016401   -1.19102204   -0.45870799
 O         -0.48377600    0.93384701    0.67285699
 C         -2.55704308    0.74969602   -0.50107503
 H         -0.63374299    0.70017898   -1.38332605
 C          0.90196800    0.69734699    0.77907199
 C          1.19936502   -0.80031800    0.83960497
 H          1.20689297    1.19147098    1.70816600
 O          1.62379801    1.21771395   -0.30545700
 C          0.58539200   -1.50892103   -0.35993600
 H          0.75792301   -1.19635105    1.75573504
 O          2.59530401   -1.05305898    0.92390299
 O          0.71843302   -2.92143393   -0.24580900
 H          1.07466996   -1.15609205   -1.27589798
 O         -1.61344802   -1.75983405    0.64000499
 H         -1.29019296   -1.59181595   -1.40207899
 H         -2.60179210    1.83676600   -0.59635699
 O         -3.30128407    0.41066399    0.66333801
 H         -3.01086211    0.30982900   -1.39848697
 H         -3.08986998   -0.51022500    0.87437397
 H         -1.36629105   -2.69156909    0.69674402
 H          1.62946904   -3.10873294    0.01410900
 C          1.64585197    2.64354801   -0.33702800
 H          2.03260899    3.04041696    0.60806102
 H          0.64511698    3.04598498   -0.51717800
 H          2.30729699    2.93187404   -1.15342605
 H          3.02266598   -0.54064202    0.22377101
