27
wb97x-d4 ma-def2-tzvp(-f) cpcm(dmso) E: -727.028693692165, G: -726.83721442
 C         -1.08978498    0.10812200   -0.39994800
 C         -0.72199398   -1.35535300   -0.60224098
 O         -0.47896600    0.60477901    0.80143201
 C         -2.57931709    0.34878001   -0.25802100
 H         -0.71910203    0.67768902   -1.25848401
 C          0.93955201    0.60324502    0.75062102
 C          1.42775595   -0.83373201    0.58806902
 H          1.25820303    1.01449001    1.71509898
 O          1.43455803    1.37935603   -0.29800200
 C          0.80203599   -1.48854899   -0.64019400
 H          1.09548700   -1.37591195    1.48277700
 O          2.84422302   -0.84054500    0.52423000
 O          1.19993699   -2.85177803   -0.72489297
 H          1.17966998   -0.99706203   -1.53987396
 O         -1.27257895   -2.20772600    0.40276799
 H         -1.13480306   -1.70624495   -1.55119801
 H         -3.09351707   -0.06351400   -1.12861300
 O         -2.88071895    1.74081695   -0.21957400
 H         -2.95742011   -0.15145899    0.63942701
 H         -2.42061090    2.11543798    0.54146498
 H         -1.15741706   -1.78677106    1.26458502
 H          0.65583497   -3.34074998   -0.09097500
 C          1.17927098    2.77267599   -0.12843899
 H          1.70086896    3.28888512   -0.93381298
 H          1.56341302    3.11717391    0.83827001
 H          0.10862000    2.98828411   -0.18900301
 H          3.11680198   -1.76033998    0.41453201
