27
wb97x-d4 ma-def2-tzvp(-f) cpcm(dmso) E: -727.026864584163, G: -726.83595471
 C         -1.06043696    0.35609201   -0.27460599
 C         -0.82582498   -1.14875805   -0.26019800
 O         -0.35191900    1.00871396    0.78385001
 C         -2.52298689    0.73988497   -0.07775800
 H         -0.71698201    0.73698199   -1.24279904
 C          1.04885602    0.82167101    0.73309702
 C          1.36822701   -0.66566497    0.85140902
 H          1.44198501    1.36945605    1.59709597
 O          1.60920703    1.31638801   -0.44929999
 C          0.67603201   -1.44030595   -0.25767401
 H          0.96667397   -0.99871200    1.81489801
 O          2.77641201   -0.84160203    0.82087499
 O          0.91931999   -2.82652998   -0.00843600
 H          1.10010505   -1.14753306   -1.22254896
 O         -1.45559502   -1.71273696    0.88449699
 H         -1.26084101   -1.57454002   -1.17364395
 H         -2.85025597    0.44092301    0.92158300
 O         -3.35962892    0.17203200   -1.08002496
 H         -2.61208510    1.82463098   -0.16216600
 H         -3.53253794   -0.74648899   -0.84384400
 H         -1.10405505   -2.60828090    0.97830099
 H          0.83559102   -3.30820608   -0.83969897
 C          1.50497699    2.73411393   -0.56105602
 H          1.93841195    3.22113490    0.31986001
 H          0.46217200    3.04570198   -0.66929799
 H          2.06471109    3.02338004   -1.45013106
 H          2.94046998   -1.79174399    0.86771601
