27
wb97x-d4 ma-def2-tzvp(-f) cpcm(dmso) E: -727.027277656758, G: -726.83544348
 C         -1.04410601    0.28335401   -0.29855201
 C         -0.78126299   -1.21649802   -0.37588099
 O         -0.33801699    0.84567302    0.81488597
 C         -2.50839090    0.64597702   -0.08069700
 H         -0.69827402    0.73922002   -1.23205602
 C          1.07238305    0.73125899    0.70273000
 C          1.45182896   -0.74618900    0.67096800
 H          1.46835804    1.21478295    1.60302305
 O          1.56705403    1.35692596   -0.44295499
 C          0.72575498   -1.46504796   -0.46192300
 H          1.12497699   -1.17246401    1.62794399
 O          2.86029410   -0.86408502    0.55165398
 O          1.02370501   -2.85644794   -0.43208301
 H          1.09450102   -1.08700895   -1.41829002
 O         -1.34572303   -1.92702603    0.72678101
 H         -1.25542498   -1.62648201   -1.27071297
 H         -2.85740399    0.24769400    0.87651598
 O         -3.32952309    0.19167399   -1.15045297
 H         -2.59135890    1.73413503   -0.04998500
 H         -3.53221393   -0.73953402   -1.00601494
 H         -1.17476499   -1.42853200    1.53665102
 H          0.48185900   -3.23930311    0.27268600
 C          1.40568101    2.77419996   -0.41445401
 H          0.34884301    3.05145788   -0.46496099
 H          1.92732894    3.16954494   -1.28559101
 H          1.84626997    3.19092011    0.49822199
 H          3.05762506   -1.80820000    0.50254601
