27
wb97x-d4 ma-def2-tzvp(-f) cpcm(dmso) E: -727.029545645452, G: -726.83832508
 C         -1.15171099    0.16972101   -0.28654501
 C         -0.87924600   -1.32190800   -0.42952600
 O         -0.50168997    0.71107799    0.86918199
 C         -2.63381910    0.47404900   -0.16379701
 H         -0.76237702    0.66327900   -1.18583298
 C          0.89906198    0.55763900    0.86847800
 C          1.28361499   -0.91767901    0.76546198
 H          1.23477197    0.98018700    1.82206500
 O          1.51933503    1.22389495   -0.19978701
 C          0.62687498   -1.55391300   -0.45253900
 H          0.92991900   -1.42166901    1.66660094
 O          2.69434905   -1.09085202    0.73582703
 O          0.84954900   -2.96028996   -0.47565299
 H          1.03226805   -1.09390700   -1.36204898
 O         -1.49258304   -2.01815510    0.65034801
 H         -1.30378497   -1.65957403   -1.38370001
 H         -3.17035103   -0.07545900   -0.94567400
 O         -2.91386294    1.86937106   -0.24240500
 H         -3.00107598    0.14054100    0.80741000
 H         -2.70285201    2.16922998   -1.13475204
 H         -1.13517594   -2.91553807    0.64412498
 H          1.78653204   -3.10998797   -0.29598001
 C          1.44442904    2.64441204   -0.09689100
 H          1.86116803    2.98071599    0.85899299
 H          0.40966401    2.98777890   -0.18267301
 H          2.03342509    3.05310607   -0.91741300
 H          3.04356503   -0.48607200    0.06672800
