27
wb97x-d4 ma-def2-tzvp(-f) cpcm(dmso) E: -727.028961902381, G: -726.83775767
 C         -1.13454604    0.25979501   -0.22718801
 C         -0.92327499   -1.24761796   -0.24848300
 O         -0.41456699    0.87572098    0.84625298
 C         -2.58971095    0.66482598   -0.02883400
 H         -0.77891099    0.65928602   -1.18502295
 C          0.97913200    0.66294497    0.80600101
 C          1.30273199   -0.83016998    0.81634003
 H          1.36956203    1.15196395    1.70529103
 O          1.57640004    1.20715702   -0.33991501
 C          0.57102299   -1.53799605   -0.31661299
 H          0.97017097   -1.24196303    1.77062798
 O          2.70366001   -1.06009495    0.74593103
 O          0.74459100   -2.94911599   -0.23154800
 H          0.95168698   -1.16944301   -1.27704895
 O         -1.50467002   -1.82245803    0.91641200
 H         -1.40517998   -1.65086901   -1.14657700
 H         -2.96285295    0.25286999    0.90935898
 O         -3.42537904    0.15535299   -1.06177604
 H         -2.64522004    1.75706398    0.02295100
 H         -3.22254610    0.62715501   -1.87815201
 H         -1.18437898   -2.73200703    0.96960598
 H          1.68437898   -3.11912107   -0.08829700
 C          1.56824601    2.63319111   -0.36032200
 H          2.04455805    3.03094912    0.54256803
 H          0.54665500    3.01688790   -0.43125600
 H          2.13466501    2.94028401   -1.23900998
 H          3.04377604   -0.53459197    0.00870400
