27
wb97x-d4 ma-def2-tzvp(-f) cpcm(dmso) E: -727.028492096962, G: -726.8374939199999
 C         -1.10619295    0.16344599   -0.38194999
 C         -0.76729000   -1.31571996   -0.49145499
 O         -0.52647901    0.74771899    0.79242897
 C         -2.59515190    0.43533900   -0.30255401
 H         -0.70404202    0.66436100   -1.26970196
 C          0.88521302    0.67423999    0.82502002
 C          1.31755102   -0.78954601    0.80166203
 H          1.17418301    1.14425397    1.77196896
 O          1.47864401    1.34424305   -0.24927600
 C          0.75174701   -1.49478102   -0.42123801
 H          0.89473301   -1.25507605    1.69889700
 O          2.73481894   -0.85260099    0.84007698
 O          1.08932602   -2.87745404   -0.29228899
 H          1.20568705   -1.07674205   -1.32453096
 O         -1.40896904   -2.03434801    0.55601102
 H         -1.12137103   -1.67684197   -1.46635199
 H         -3.09213901   -0.02537300   -1.15882099
 O         -2.87352800    1.83206606   -0.36500299
 H         -3.00338697    0.00158800    0.61527902
 H         -2.41755104    2.24913502    0.37616399
 H         -0.98515302   -2.90234804    0.59341103
 H          1.09338796   -3.27806497   -1.16950095
 C          1.27981901    2.75524306   -0.20219401
 H          1.61882699    3.15819001    0.75897700
 H          0.22644199    3.01091194   -0.34922099
 H          1.87423503    3.18503594   -1.00801206
 H          2.97663999   -1.78687799    0.82220101
