48
wb97x-d4 ma-def2-tzvp(-f) cpcm(dmso) E: -1056.432841670849, G: -1056.05709168
 C         -2.67052197   -1.34348500   -1.01628804
 C         -1.14030504   -1.28623402   -0.88439202
 O         -0.57278699   -2.57522106   -0.81273001
 C         -0.72134799   -0.40510899    0.28549701
 C         -1.43312299    0.94019097    0.28137299
 C         -2.94586110    0.71428198    0.15219700
 C         -3.71467209    2.01607203   -0.00491700
 O         -3.53832603    2.77149105    1.19805396
 O         -3.21191001   -0.03716400   -1.02825296
 O         -1.08697796    1.58464801    1.49679697
 O         -3.17684388   -2.13029599    0.01715000
 H         -3.30549908    0.17944500    1.03798902
 H         -2.94036388   -1.76862705   -1.98903799
 H         -1.09213400    1.51840103   -0.58681601
 C         -4.54896498   -2.48274589   -0.16709700
 H         -0.97454399   -3.02703905   -0.05840200
 H         -3.32793093    2.56790209   -0.86780202
 H         -4.77284098    1.79129505   -0.16869700
 H         -1.77025604    2.25512695    1.66840005
 H         -3.80968189    3.68144393    1.03267205
 H         -4.80913401   -3.16782403    0.63874203
 H         -4.68826103   -2.97902489   -1.13344002
 H         -5.18900204   -1.59788704   -0.11635300
 H         -0.76590002   -0.82108998   -1.79906797
 O         -0.81677699   -1.06844497    1.49631095
 H          0.42067501   -0.16722400    0.10737200
 H         -0.85863203   -0.38842699    2.18877292
 C          4.00595284   -0.15610000    1.26856399
 C          2.49355292   -0.52242899    1.23337102
 C          4.39925385    0.41347700   -0.09947400
 C          3.67092609    1.74668097   -0.30610901
 C          2.15267110    1.52304101   -0.05227100
 N          1.94549096    0.07184100    0.01114700
 H          4.58408785   -1.05258405    1.49803805
 H          2.33086205   -1.59857905    1.18239903
 H          5.47892189    0.56448603   -0.14700300
 H          4.04030514    2.50325298    0.38798901
 H          1.53859496    1.92180204   -0.85939503
 H          4.19212389    0.58020502    2.05283904
 H          1.95269597   -0.11360200    2.08662391
 C          3.95474911   -0.56693703   -1.19017398
 H          3.82888103    2.11023998   -1.32338798
 H          1.82545602    1.94645798    0.89622003
 C          2.40079808   -0.61480999   -1.20413601
 H          4.35548019   -1.56254303   -0.98971498
 H          4.31117821   -0.24630401   -2.17034602
 H          2.01963806   -1.63475895   -1.18358898
 H          1.98031294   -0.08729300   -2.05962610
