48
wb97x-d4 ma-def2-tzvp(-f) cpcm(dmso) E: -1056.432902009567, G: -1056.05601696
 C         -2.78570104   -0.98285401   -1.11316204
 C         -1.24900699   -1.00364995   -1.07944500
 O         -0.75450999   -2.31651402   -1.26890504
 C         -0.71537799   -0.41233701    0.22386099
 C         -1.37533605    0.90789700    0.58396202
 C         -2.89826202    0.72704798    0.55900699
 C         -3.65197396    2.01925111    0.81283998
 O         -3.32806802    3.03764009   -0.12757900
 O         -3.28769112    0.27738199   -0.74423701
 O         -0.91266698    1.39651501    1.82795298
 O         -3.23351097   -2.01474500   -0.28184500
 H         -3.19408202   -0.00680100    1.31714296
 H         -3.13626599   -1.14290202   -2.13854599
 H         -1.10704100    1.65119505   -0.16932200
 C         -4.62008095   -2.31829691   -0.45217001
 H         -1.44018698   -2.92818689   -0.96188301
 H         -4.72634888    1.80562198    0.79827797
 H         -3.38571000    2.39988494    1.79917395
 H         -1.02666795    0.69965100    2.48784304
 H         -3.60681701    2.73180509   -0.99907798
 H         -4.83209515   -2.54915690   -1.50127101
 H         -5.24202490   -1.48010099   -0.12815100
 H         -4.82917118   -3.18995500    0.16629399
 H         -0.89596301   -0.37857199   -1.90306902
 O         -0.75431597   -1.27468896    1.30633295
 H          0.42624101   -0.15931800    0.02567200
 H         -0.53398597   -2.16574502    0.99717098
 C          3.93856692   -0.07341100    1.34551501
 C          2.43929696   -0.47484601    1.24253297
 C          4.37881088    0.50941199   -0.00245500
 C          3.62988091    1.82640302   -0.23729900
 C          2.10841489    1.56781197   -0.05032800
 N          1.92869902    0.11120400   -0.00139900
 H          4.52765703   -0.95611101    1.59932005
 H          2.30592489   -1.55457604    1.18088806
 H          5.45576477    0.68504000   -0.00209000
 H          3.95153403    2.58849001    0.47433099
 H          1.51976597    1.95717394   -0.88071501
 H          4.07205391    0.66515100    2.13843203
 H          1.85051000   -0.08381800    2.07147098
 C          4.00485611   -0.47666699   -1.11469102
 H          3.82444596    2.19726491   -1.24557197
 H          1.73203397    1.97879100    0.88512897
 C          2.45494509   -0.56026101   -1.19733500
 H          4.41976881   -1.46348703   -0.89999998
 H          4.39686680   -0.14365900   -2.07699800
 H          2.09757304   -1.58933198   -1.19619405
 H          2.05925298   -0.04063900   -2.06941009
