48
wb97x-d4 ma-def2-tzvp(-f) cpcm(dmso) E: -1056.432947079362, G: -1056.05596682
 C         -2.66979098   -1.31561697   -0.91046202
 C         -1.14159000   -1.27040696   -0.76356000
 O         -0.59869301   -2.55689096   -0.56833500
 C         -0.72237599   -0.29187399    0.32836899
 C         -1.42243004    1.06395805    0.21475101
 C         -2.92924809    0.84624201    0.07085900
 C         -3.66978192    2.14016294   -0.20615400
 O         -5.07686377    1.93440199   -0.26098299
 O         -3.18048406   -0.00594900   -1.04838896
 O         -1.19972205    1.81338596    1.40169406
 O         -3.19988298   -1.99603701    0.18557800
 H         -3.31893897    0.38727000    0.98549402
 H         -2.93639708   -1.82525301   -1.84285903
 H         -1.04888105    1.59251404   -0.66780502
 C         -4.58362722   -2.31659293    0.03390900
 H         -1.03264403   -2.93900800    0.20630801
 H         -3.48105788    2.84689999    0.60171402
 H         -3.30195308    2.57093596   -1.14557803
 H         -0.37253699    2.30280209    1.31474698
 H         -5.24831915    1.29048300   -0.95915198
 H         -5.19569921   -1.41058302    0.03278300
 H         -4.85714388   -2.94057703    0.88380700
 H         -4.74728012   -2.86903501   -0.89764303
 H         -0.74732798   -0.89495897   -1.71073604
 O         -0.83175302   -0.84657598    1.59049296
 H          0.42761201   -0.08734700    0.13697700
 H         -0.86449599   -0.10979400    2.22317290
 C          3.93963695    0.25028700    1.46187198
 C          2.38427305    0.24970300    1.45883799
 C          4.42763519    0.36511001    0.01299400
 C          3.75005507    1.57132602   -0.64687300
 C          2.22347498    1.28860402   -0.74416101
 N          1.96078205    0.09189700    0.06409100
 H          4.31215000   -0.67087698    1.91387999
 H          1.97112596   -0.57655197    2.03702211
 H          5.51182985    0.48676401   -0.00842400
 H          3.92314196    2.47324896   -0.05655900
 H          1.90728605    1.07487202   -1.76450706
 H          4.29406595    1.09156096    2.05959392
 H          1.97333896    1.19005501    1.82529199
 C          4.02251720   -0.90370703   -0.74504203
 H          4.14679623    1.73853600   -1.64947605
 H          1.63098204    2.11154509   -0.34518901
 C          2.49585199   -1.12815797   -0.55181402
 H          4.56186724   -1.77214205   -0.36362699
 H          4.25152683   -0.79908502   -1.80735302
 H          2.28195310   -1.95858395    0.11899300
 H          1.98101699   -1.28696299   -1.49854696
