48
wb97x-d4 ma-def2-tzvp(-f) cpcm(dmso) E: -1056.43176573298, G: -1056.0559226500002
 C         -2.76127005   -0.94091600   -1.10897899
 C         -1.22473097   -0.86097300   -1.09508801
 O         -0.59451902   -2.09415293   -1.38543999
 C         -0.72313702   -0.42142600    0.26811400
 C         -1.41399300    0.84236699    0.75354201
 C         -2.93495202    0.65526700    0.66687799
 C         -3.69980693    1.92657006    0.98725897
 O         -3.36591601    3.00056291    0.11436500
 O         -3.29629803    0.29075199   -0.66944599
 O         -0.99854302    1.18860495    2.05952811
 O         -3.17555904   -2.01938701   -0.33145201
 H         -3.24347901   -0.12722500    1.36968899
 H         -3.11931801   -1.05136395   -2.13990307
 H         -1.12788105    1.66803503    0.09905800
 C         -4.57261610   -2.29077506   -0.45132101
 H         -0.94249499   -2.44365692   -2.21505690
 H         -4.77277422    1.71004903    0.94229603
 H         -3.45142388    2.24926090    1.99868596
 H         -1.15146196    0.42853701    2.63644505
 H         -3.61844707    2.73996091   -0.77964699
 H         -4.84805679   -2.41800690   -1.50397694
 H         -5.16790199   -1.48426402   -0.01486400
 H         -4.76027203   -3.21680093    0.09071000
 H         -0.94749200   -0.09043200   -1.82288599
 O         -0.76157600   -1.40757895    1.24073696
 H          0.41456899   -0.12907800    0.11606100
 H         -0.68902701   -2.26955104    0.80413401
 C          3.66681790    1.77711999    0.35777900
 C          2.16183996    1.45962203    0.58244002
 C          4.37329006    0.48940000   -0.07966300
 C          3.84234691    0.08217400   -1.45894098
 C          2.28939605    0.03038400   -1.39429402
 N          1.92104304    0.12267200    0.02434300
 H          4.09321499    2.15905404    1.28677297
 H          1.89907002    1.42892504    1.63841498
 H          5.45185280    0.64875102   -0.12447700
 H          4.14475822    0.80407798   -2.21917796
 H          1.89186203   -0.90313900   -1.79008806
 H          3.77535701    2.54638290   -0.40933701
 H          1.51172101    2.16684389    0.06818700
 C          4.04623222   -0.62114799    0.92613697
 H          4.23496485   -0.89655000   -1.74189496
 H          1.82679296    0.87074900   -1.91128302
 C          2.52663708   -0.94086802    0.83168697
 H          4.29571009   -0.29929900    1.93906999
 H          4.61526203   -1.52585804    0.70642298
 H          2.04510307   -0.94499099    1.80906606
 H          2.33510208   -1.88868201    0.32939601
