48
wb97x-d4 ma-def2-tzvp(-f) cpcm(dmso) E: -1056.432790411205, G: -1056.0559180500002
 C         -2.80693603   -0.57468998   -1.41841197
 C         -1.27008700   -0.61196101   -1.42917204
 O         -0.78240699   -1.71672797   -2.15660191
 C         -0.70755899   -0.55815703   -0.01437000
 C         -1.34043598    0.54556000    0.82170397
 C         -2.86880994    0.43392700    0.73772401
 C         -3.57258606    1.58947802    1.43089199
 O         -3.25594807    1.51778400    2.82523108
 O         -3.26907110    0.50236797   -0.62776703
 O         -0.85900700    0.37647101    2.14562988
 O         -3.27476406   -1.81157100   -0.97534400
 H         -3.18709993   -0.51357901    1.18559802
 H         -3.17732310   -0.36333400   -2.42739511
 H         -1.04230702    1.51853299    0.41187000
 C         -4.67731619   -1.98975003   -1.17816198
 H         -1.16726398   -2.51255488   -1.76539505
 H         -3.22702408    2.53675389    1.00424898
 H         -4.65160799    1.49883795    1.27405906
 H         -1.48683798    0.82687902    2.73628902
 H         -3.48548889    2.35877299    3.23663592
 H         -4.93385601   -1.83092904   -2.23108101
 H         -5.25224304   -1.29993904   -0.55454201
 H         -4.90834188   -3.01580906   -0.89502501
 H         -0.93776399    0.28900099   -1.94994903
 O         -0.74035001   -1.79493296    0.60594398
 H          0.42799601   -0.25720999   -0.13580300
 H         -0.69314802   -1.63326001    1.56265903
 C          3.98321295   -0.02898700   -1.44533801
 C          2.43497491   -0.17682099   -1.49651396
 C          4.37269878    0.54610002   -0.07880900
 C          4.01564789   -0.47456500    1.00816298
 C          2.51979089   -0.87296301    0.84057099
 N          1.94198704    0.05637100   -0.13440800
 H          4.30631208    0.63248700   -2.25066590
 H          1.97152102    0.56340998   -2.14788890
 H          5.44242716    0.76041001   -0.05313800
 H          4.63501310   -1.36834300    0.91934699
 H          1.96399403   -0.77978700    1.77322400
 H          4.45343590   -1.00305605   -1.59396505
 H          2.12754297   -1.17495203   -1.80486703
 C          3.57323194    1.83014405    0.16593000
 H          4.17582512   -0.04467700    1.99879205
 H          2.40409088   -1.88257098    0.44778699
 C          2.06693697    1.45905995    0.27875501
 H          3.72246099    2.53114390   -0.65755999
 H          3.89258409    2.31527710    1.08960497
 H          1.44511104    2.06502390   -0.37947199
 H          1.69877601    1.53733301    1.30098498
