48
wb97x-d4 ma-def2-tzvp(-f) cpcm(dmso) E: -1056.43272657992, G: -1056.05588295
 C         -2.60928512   -0.90127897   -1.20905006
 C         -1.08698797   -0.81432903   -1.03668404
 O         -0.45252600   -2.04095411   -1.32225096
 C         -0.71279800   -0.28136101    0.34133300
 C         -1.49655199    0.97402799    0.73187602
 C         -2.98890591    0.72654003    0.49685499
 C         -3.81826591    1.97704899    0.71550399
 O         -5.21108818    1.70542300    0.60546499
 O         -3.20149207    0.33291799   -0.86024302
 O         -1.31049800    1.23624504    2.11620688
 O         -3.08281398   -1.96970701   -0.44905800
 H         -3.33323002   -0.06287900    1.17315996
 H         -2.85327506   -1.04574299   -2.26718402
 H         -1.16543305    1.81630003    0.11680900
 C         -4.43790817   -2.31100798   -0.74455798
 H         -0.84203899   -2.71026492   -0.74357802
 H         -3.64628792    2.35396099    1.72338700
 H         -3.51218200    2.74431896   -0.00626400
 H         -0.55238801    1.82184899    2.22807693
 H         -5.37326288    1.37375295   -0.28618899
 H         -5.11518383   -1.50097203   -0.46060300
 H         -4.67205095   -3.20224404   -0.16381299
 H         -4.55236721   -2.52520204   -1.81254196
 H         -0.73700702   -0.09137600   -1.77666700
 O         -0.76905298   -1.26628006    1.30951905
 H          0.42769200    0.03640500    0.23461001
 H         -0.81778598   -0.81538999    2.16891503
 C          3.92024708    1.41444004    0.73894900
 C          2.36645508    1.41075695    0.70416403
 C          4.42738485    0.27049601   -0.14577000
 C          3.76768899    0.38240799   -1.52490199
 C          2.24375010    0.12137100   -1.36373997
 N          1.95553696    0.14826100    0.07622300
 H          4.26983500    1.28222895    1.76473904
 H          1.93631995    1.45101500    1.70442796
 H          5.51293421    0.32359201   -0.24342500
 H          3.93367791    1.37661898   -1.94446099
 H          1.95068002   -0.85707998   -1.74066997
 H          4.28332186    2.37726688    0.37599999
 H          1.96508205    2.22555304    0.10262100
 C          4.01860905   -1.06362402    0.48907101
 H          4.18395519   -0.35273400   -2.21550798
 H          1.64407206    0.89207000   -1.84747803
 C          2.48976111   -1.02591801    0.77471000
 H          4.55296993   -1.22868705    1.42597497
 H          4.24986792   -1.88997602   -0.18595999
 H          2.27210593   -0.90780002    1.83570004
 H          1.97871995   -1.91005898    0.39630300
