48
wb97x-d4 ma-def2-tzvp(-f) cpcm(dmso) E: -1056.431712397786, G: -1056.05577311
 C         -2.75581598   -0.92595500   -1.13742602
 C         -1.22057104   -0.82717597   -1.12328303
 O         -0.57512200   -2.05020809   -1.42263305
 C         -0.72621900   -0.39240500    0.24366599
 C         -1.42898905    0.86200899    0.73609698
 C         -2.94811010    0.66119599    0.64510000
 C         -3.72510600    1.92414904    0.96964401
 O         -3.40019393    3.00497103    0.10174100
 O         -3.30515695    0.29777399   -0.69273198
 O         -1.02114403    1.20187104    2.04645395
 O         -3.15598011   -2.01235294   -0.36349800
 H         -3.25023794   -0.12649401    1.34491205
 H         -3.11327600   -1.03690004   -2.16848111
 H         -1.14773905    1.69504595    0.08886900
 C         -4.54926682   -2.30198598   -0.48339200
 H         -0.91389000   -2.39389896   -2.25840902
 H         -4.79598188    1.69792402    0.92266500
 H         -3.48087001    2.24488211    1.98269701
 H         -1.17016101    0.43611401    2.61684799
 H         -3.64878106    2.74558401   -0.79374403
 H         -4.82338810   -2.43075800   -1.53617799
 H         -5.15502119   -1.50442398   -0.04488600
 H         -4.72422886   -3.23155403    0.05684900
 H         -0.95194399   -0.04779900   -1.84475696
 O         -0.76001102   -1.38490701    1.21049500
 H          0.40999800   -0.09464000    0.09517000
 H         -0.68880600   -2.24435306    0.76896298
 C          3.71894002    1.58787704    0.76273501
 C          2.17719698    1.45297599    0.61978602
 C          4.38078499    0.45111600   -0.02457800
 C          3.81619406    0.44581100   -1.45022595
 C          2.31191206    0.05951100   -1.38174701
 N          1.92102003    0.13144299    0.03164700
 H          4.00121880    1.53299904    1.81603205
 H          1.66585696    1.50406802    1.57950795
 H          5.46269417    0.59097397   -0.04887800
 H          3.92697096    1.43253398   -1.90425503
 H          2.12937188   -0.95816100   -1.72326601
 H          4.02970314    2.56011009    0.37709600
 H          1.75849199    2.20077300   -0.05319600
 C          4.03637505   -0.88242501    0.64865500
 H          4.34237194   -0.27788201   -2.07471108
 H          1.68485999    0.74901003   -1.94633603
 C          2.49313092   -0.95980102    0.82628798
 H          4.51217890   -0.95810503    1.62764394
 H          4.38263083   -1.71685803    0.03558600
 H          2.18936205   -0.81051600    1.86162603
 H          2.08474588   -1.90116501    0.45984200
