48
wb97x-d4 ma-def2-tzvp(-f) cpcm(dmso) E: -1056.430288367771, G: -1056.05549291
 C         -2.71357894   -1.47525406   -0.74389201
 C         -1.18115497   -1.43718195   -0.60564798
 O         -0.62690902   -2.66393495   -0.16973899
 C         -0.75300902   -0.37981400    0.39887300
 C         -1.41012001    0.96546799    0.13482501
 C         -2.92757893    0.77230197    0.02747000
 C         -3.66686606    2.05535007   -0.31077999
 O         -3.18740106    2.68880296   -1.49423206
 O         -3.19679189   -0.17601100   -1.01082206
 O         -1.05534196    1.91782498    1.11866200
 O         -3.26530600   -2.03552794    0.40709400
 H         -3.31466389    0.40014699    0.98315299
 H         -2.99157405   -2.06551194   -1.62587094
 H         -1.04582798    1.34602904   -0.82178497
 C         -4.66354179   -2.29807305    0.28398201
 H         -1.03025901   -3.39016199   -0.66057301
 H         -4.71667290    1.80806601   -0.48313901
 H         -3.60812902    2.73278093    0.54479998
 H         -1.27772403    1.55428600    1.98619604
 H         -2.45456600    3.26763201   -1.25623000
 H         -5.23296881   -1.36755800    0.21149600
 H         -4.96168709   -2.83930302    1.18105698
 H         -4.86014605   -2.91432309   -0.60019100
 H         -0.78741199   -1.14945197   -1.58702803
 O         -0.91126603   -0.75187898    1.72318995
 H          0.40511999   -0.20791100    0.21912999
 H         -0.84393501   -1.71793401    1.77212906
 C          3.83212399    0.84575701    1.36777604
 C          2.35268903    0.37439501    1.46994102
 C          4.32814884    0.59100002   -0.06027800
 C          3.54215693    1.48646796   -1.02395403
 C          2.02283502    1.25847697   -0.78232098
 N          1.90251994    0.09300500    0.10249900
 H          4.43400717    0.29401401    2.09153295
 H          2.25183105   -0.54362398    2.04807901
 H          5.39472485    0.81065297   -0.13077100
 H          3.77731109    2.53838205   -0.85429603
 H          1.48820806    1.04058099   -1.70668197
 H          3.89932299    1.90872896    1.60755002
 H          1.70478296    1.14196706    1.89109504
 C          4.06742287   -0.87500900   -0.42216399
 H          3.79437399    1.24252105   -2.05764294
 H          1.55439305    2.10469389   -0.28140301
 C          2.53063607   -1.10818696   -0.46138299
 H          4.52415419   -1.53467405    0.31815100
 H          4.49057198   -1.11347198   -1.39921105
 H          2.22848105   -1.96463394    0.13946800
 H          2.15860701   -1.22990298   -1.47811306
