48
wb97x-d4 ma-def2-tzvp(-f) cpcm(dmso) E: -1056.432999388398, G: -1056.0553499700002
 C         -2.79332995   -0.01190200   -1.28655803
 C         -1.25877595   -0.00934400   -1.25860703
 O         -0.71195900   -0.67228597   -2.37706208
 C         -0.72455901   -0.56359297    0.05588800
 C         -1.41553199    0.03843000    1.27969396
 C         -2.93505192   -0.02905000    1.09999204
 C         -3.68748689    0.68927300    2.20627189
 O         -3.33955407    2.06612301    2.30534601
 O         -3.30087090    0.60968399   -0.12492800
 O         -1.07991600   -0.72426301    2.43170094
 O         -3.23287702   -1.32704997   -1.43678999
 H         -3.24853110   -1.07873499    1.08945596
 H         -3.14740801    0.60689998   -2.11822104
 H         -1.11491501    1.08309495    1.39092195
 C         -4.62669897   -1.42248201   -1.73395395
 H         -1.06355596   -1.57273698   -2.37921691
 H         -4.76189280    0.57261503    2.02732205
 H         -3.44112611    0.22963201    3.16361189
 H         -0.31454000   -0.32608199    2.86257410
 H         -3.60145903    2.49502802    1.48167801
 H         -4.87123823   -0.81830603   -2.61432195
 H         -5.23018408   -1.09002495   -0.88506699
 H         -4.83374023   -2.47170806   -1.94040000
 H         -0.95426202    1.03789604   -1.32415104
 O         -0.71602899   -1.94642198    0.06982100
 H          0.40544599   -0.20686001    0.09282300
 H         -0.66082603   -2.21810699    1.00109994
 C          3.59668994    1.16391397   -1.43612301
 C          2.07023811    1.00623798   -1.18611598
 C          4.35004377    0.54878300   -0.25201601
 C          4.08620691   -0.96127099   -0.22599600
 C          2.54822302   -1.19638097   -0.25164899
 N          1.91536999    0.10798200   -0.03432100
 H          3.83498693    2.22379994   -1.53848696
 H          1.59597099    1.95381999   -0.93186700
 H          5.42009497    0.74004900   -0.34775501
 H          4.53620100   -1.44878304   -1.09221697
 H          2.22317410   -1.87154102    0.53966701
 H          3.87482905    0.66118699   -2.36443901
 H          1.56005096    0.55900699   -2.03768611
 C          3.81796288    1.16570401    1.04629898
 H          4.51453400   -1.40404606    0.67530298
 H          2.20492697   -1.57530904   -1.21348596
 C          2.33481193    0.73352498    1.22581005
 H          3.88527799    2.25452900    1.00325894
 H          4.39660978    0.82161301    1.90495098
 H          1.67985201    1.58260202    1.41991496
 H          2.21480894   -0.00515100    2.01803088
