48
wb97x-d4 ma-def2-tzvp(-f) cpcm(dmso) E: -1056.431450419144, G: -1056.0552350700002
 C         -2.82104611   -0.67748302   -1.24542296
 C         -1.28283405   -0.69874501   -1.25708306
 O         -0.79636800   -1.89461005   -1.83679903
 C         -0.70987600   -0.51839101    0.15018900
 C         -1.35687006    0.64665699    0.87158602
 C         -2.87704706    0.44358000    0.86574697
 C         -3.63331389    1.57414997    1.53708196
 O         -3.29552388    2.85435104    1.01295698
 O         -3.31590605    0.40525901   -0.49815899
 O         -0.82599801    0.72866601    2.18251801
 O         -3.24874210   -1.91837800   -0.75944000
 H         -3.12799406   -0.49406499    1.37231696
 H         -3.19721794   -0.52016097   -2.26220298
 H         -1.13475502    1.55510199    0.30289900
 C         -4.64145088   -2.16126990   -0.96989697
 H         -1.48468399   -2.56751990   -1.72874105
 H         -4.70693588    1.38139701    1.43706703
 H         -3.38646007    1.59237897    2.59967208
 H         -0.91230601    1.63934600    2.48693299
 H         -3.56423402    2.87570906    0.08655800
 H         -4.89086103   -2.05102611   -2.03043008
 H         -5.24804401   -1.47221005   -0.37694901
 H         -4.83339214   -3.18481493   -0.65124202
 H         -0.94925600    0.14342400   -1.86826503
 O         -0.72087801   -1.66788101    0.91957301
 H          0.42241299   -0.20951900   -0.00198400
 H         -0.52614301   -2.41557097    0.33444399
 C          3.61050892    1.83472896    0.15701699
 C          2.09165406    1.55318701   -0.02551100
 C          4.37537003    0.51984298   -0.03347400
 C          3.94722891   -0.10914500   -1.36432099
 C          2.45304990   -0.52525002   -1.25264502
 N          1.93018401    0.09434600   -0.02849500
 H          3.79639792    2.24004889    1.15359604
 H          1.49921000    1.96287405    0.79170400
 H          5.45023918    0.70790899   -0.03433800
 H          4.07464886    0.60631597   -2.17911601
 H          2.33092189   -1.60354698   -1.15611398
 H          3.92597795    2.57725191   -0.57763797
 H          1.71410298    1.93085897   -0.97511399
 C          4.00770283   -0.43775401    1.10581505
 H          4.54771519   -0.99210203   -1.58896899
 H          1.86337996   -0.16709700   -2.09594703
 C          2.45776200   -0.53102899    1.18847299
 H          4.39375591   -0.07460800    2.05960989
 H          4.43206120   -1.42631400    0.91969502
 H          2.05491304    0.01405000    2.04077792
 H          2.10893011   -1.56294405    1.22206295
