48
wb97x-d4 ma-def2-tzvp(-f) cpcm(dmso) E: -1056.431088770295, G: -1056.05510484
 C         -2.81953001   -0.25388101   -1.29098105
 C         -1.28272295   -0.22390801   -1.35645604
 O         -0.74036002   -1.21911705   -2.20315099
 C         -0.67976803   -0.44657800    0.02076900
 C         -1.28399301    0.46626201    1.07902002
 C         -2.81394792    0.36497200    1.01617801
 C         -3.48769212    1.37163997    1.92820001
 O         -4.90301895    1.21985996    1.92234898
 O         -3.25733209    0.66562998   -0.31127700
 O         -0.78210902    0.16522400    2.36608911
 O         -3.24910212   -1.55587900   -1.04740703
 H         -3.12517405   -0.64852703    1.29164302
 H         -3.23856211    0.11830200   -2.23401093
 H         -0.99352998    1.49678397    0.85701400
 C         -4.66490221   -1.70669401   -1.16241097
 H         -1.20562100   -1.20916498   -3.04842401
 H         -3.15409803    1.21179903    2.95337391
 H         -3.20378089    2.38524604    1.61917102
 H         -0.92114699   -0.77724099    2.53085899
 H         -5.20382214    1.34865105    1.01432800
 H         -4.87635899   -2.77025199   -1.05981302
 H         -5.00810194   -1.35545695   -2.14167809
 H         -5.18352413   -1.15295601   -0.37509701
 H         -1.00279200    0.78139001   -1.69014502
 O         -0.69835800   -1.76278698    0.44648501
 H          0.46317399   -0.12738401   -0.06810200
 H         -0.68447202   -2.33397007   -0.33680800
 C          4.01243877   -0.19245300   -1.34176505
 C          2.46952891   -0.39665300   -1.33958900
 C          4.42583704    0.44595501   -0.01192800
 C          4.00513506   -0.47824600    1.13533497
 C          2.46039510   -0.66215402    1.08897996
 N          1.96662700    0.10956100   -0.05695000
 H          4.29427004    0.45065901   -2.17721295
 H          1.97947097    0.16317500   -2.13477612
 H          5.50677299    0.59561801    0.00921900
 H          4.49316502   -1.44961596    1.03901100
 H          1.97150302   -0.27816901    1.98279595
 H          4.50753880   -1.15638697   -1.47155905
 H          2.19202995   -1.44721103   -1.41521895
 C          3.71129608    1.79312098    0.13878700
 H          4.29084110   -0.04744600    2.09649301
 H          2.17407393   -1.70250499    0.93899900
 C          2.17346001    1.55351305    0.10168600
 H          3.99477005    2.46574092   -0.67243397
 H          3.98450494    2.26479006    1.08421803
 H          1.69849300    2.05475807   -0.74106002
 H          1.68849802    1.86198902    1.02726197
