48
wb97x-d4 ma-def2-tzvp(-f) cpcm(dmso) E: -1056.431227288377, G: -1056.05509765
 C         -2.75026703   -0.66325098   -1.31331301
 C         -1.21548796   -0.72039598   -1.27918506
 O         -0.73762798   -1.97763598   -1.71907902
 C         -0.68434399   -0.40135100    0.11721500
 C         -1.32137597    0.83891600    0.72600102
 C         -2.84927893    0.70087099    0.64708000
 C         -3.55270696    1.95034897    1.14428306
 O         -4.96699810    1.79186296    1.20323896
 O         -3.22340488    0.51963001   -0.72177899
 O         -0.85834801    1.05732203    2.04443693
 O         -3.22353506   -1.82286704   -0.68909198
 H         -3.16825795   -0.16392700    1.24099004
 H         -3.09784007   -0.62339401   -2.35153794
 H         -1.02436101    1.71012700    0.13551100
 C         -4.62150478   -2.04334092   -0.88885099
 H         -1.43445206   -2.62795210   -1.54755199
 H         -3.14804101    2.21879911    2.12365389
 H         -3.35906410    2.77118802    0.44940200
 H         -0.97477198    0.23878500    2.54497409
 H         -5.17008400    1.18282402    1.92303896
 H         -4.85664082   -2.04956198   -1.95831096
 H         -5.21034479   -1.27013505   -0.38898700
 H         -4.85120583   -3.01588893   -0.45582601
 H         -0.84626198    0.04814900   -1.96263802
 O         -0.75031197   -1.45122695    1.01706100
 H          0.46346501   -0.13901199   -0.02522700
 H         -0.54784602   -2.27467299    0.54895800
 C          3.69248796    1.79648304    0.22346300
 C          2.16707110    1.56083906    0.03373100
 C          4.42352295    0.47065800   -0.01817600
 C          3.98381090   -0.09248000   -1.37447906
 C          2.47862792   -0.47109100   -1.28446996
 N          1.96821594    0.10778000   -0.03503300
 H          3.88973689    2.15871501    1.23435998
 H          1.58543098    1.94612300    0.87025201
 H          5.50287294    0.63064200   -0.00913300
 H          4.13469315    0.65148401   -2.15919209
 H          2.32652211   -1.54871500   -1.23638701
 H          4.02667809    2.55787992   -0.48306701
 H          1.79596198    1.99017894   -0.89644903
 C          4.02850580   -0.52133101    1.08169103
 H          4.56090117   -0.98187202   -1.63257301
 H          1.90110195   -0.06035300   -2.11223602
 C          2.47653198   -0.58444297    1.15415204
 H          4.41795206   -0.20354800    2.05016994
 H          4.43177223   -1.51129901    0.85974801
 H          2.08224702   -0.07069700    2.02998590
 H          2.10625196   -1.60916698    1.13917994
