48
wb97x-d4 ma-def2-tzvp(-f) cpcm(dmso) E: -1056.433162976246, G: -1056.05649878
 C         -2.69186211   -1.27689803   -0.98159701
 C         -1.16532695   -1.24731398   -0.81562299
 O         -0.62044001   -2.54777193   -0.78850502
 C         -0.75493503   -0.41886401    0.39595300
 C         -1.46590400    0.93312800    0.45295000
 C         -2.97286391    0.73213899    0.28121200
 C         -3.73261809    2.04354405    0.19299100
 O         -3.26698804    2.88134694   -0.85953403
 O         -3.21800709    0.03206000   -0.93981600
 O         -1.24768901    1.53226602    1.72332001
 O         -3.22940707   -2.10770392    0.00249600
 H         -3.36123610    0.16081600    1.13157499
 H         -2.94494390   -1.65357995   -1.97872901
 H         -1.10177195    1.57134402   -0.35562599
 C         -4.59884691   -2.43857789   -0.23258500
 H         -1.05213797   -3.02612209   -0.06789100
 H         -4.79764223    1.81943703    0.06862100
 H         -3.59853697    2.59747410    1.12226105
 H         -0.44277999    2.06287003    1.68600702
 H         -3.43602610    2.42723489   -1.69391000
 H         -4.71645498   -2.89243698   -1.22248006
 H         -5.23252678   -1.55045497   -0.16180700
 H         -4.88704395   -3.15454102    0.53601098
 H         -0.76458699   -0.75031197   -1.70235896
 O         -0.86375302   -1.13510704    1.57576895
 H          0.38867101   -0.18531699    0.23298600
 H         -0.89133501   -0.48732400    2.29908299
 C          3.91144800    0.55727798    1.38572598
 C          2.42531300    0.10508500    1.47127604
 C          4.35311079    0.49526799   -0.08154900
 C          3.57520890    1.55071902   -0.87484902
 C          2.05824900    1.35800195   -0.59276998
 N          1.91625297    0.07087800    0.09681500
 H          4.52065277   -0.10293600    2.00480795
 H          2.32271600   -0.89596200    1.88851798
 H          5.42537594    0.68213302   -0.15896700
 H          3.86854792    2.55778694   -0.57436401
 H          1.47141302    1.32231605   -1.51028204
 H          4.01285982    1.57444298    1.76918399
 H          1.81778502    0.80285501    2.04692101
 C          4.01640606   -0.89117199   -0.64197803
 H          3.77116203    1.44202101   -1.94325495
 H          1.66091597    2.13225889    0.06343400
 C          2.46890402   -1.04721200   -0.67627102
 H          4.45409107   -1.66996503   -0.01426600
 H          4.40882206   -1.00785506   -1.65335202
 H          2.13752294   -1.97706604   -0.21758400
 H          2.07023692   -0.98021001   -1.68796694
