48
wb97x-d4 ma-def2-tzvp(-f) cpcm(dmso) E: -1056.431225096382, G: -1056.0550840800001
 C         -2.74895310   -0.69196397   -1.30927706
 C         -1.21438301   -0.75069100   -1.27277899
 O         -0.73773098   -2.01670289   -1.68793702
 C         -0.68539298   -0.40492499    0.11794300
 C         -1.31900203    0.85050601    0.69840002
 C         -2.84736609    0.71805501    0.61878598
 C         -3.54539394    1.98278999    1.08433402
 O         -4.96042681    1.83232105    1.14686596
 O         -3.22025204    0.50539500   -0.74587399
 O         -0.85827303    1.09433806    2.01315594
 O         -3.22426891   -1.83611906   -0.65861797
 H         -3.17176890   -0.13035899    1.23302603
 H         -3.09591198   -0.67577302   -2.34835410
 H         -1.01658905    1.70787299    0.09068200
 C         -4.62315178   -2.05718994   -0.85121101
 H         -1.43613696   -2.66263604   -1.50681305
 H         -3.13979411    2.27407908    2.05680299
 H         -3.34782100    2.78506303    0.36921099
 H         -0.98312598    0.28820801    2.53141904
 H         -5.16632891    1.24135602    1.88081300
 H         -5.20917702   -1.27263200   -0.36592099
 H         -4.85430717   -3.02024698   -0.39820600
 H         -4.86041021   -2.08431911   -1.91987002
 H         -0.84342998    0.00415500   -1.97041905
 O         -0.75761998   -1.43494797    1.04003000
 H          0.46387199   -0.14902900   -0.02630100
 H         -0.55736798   -2.26937008    0.59088999
 C          3.68611598    1.79872203    0.21347500
 C          2.16264009    1.55670500    0.01658200
 C          4.42205095    0.47190401   -0.00665800
 C          3.99107289   -0.11024600   -1.35778499
 C          2.48690605   -0.49329701   -1.27009106
 N          1.96756005    0.10223900   -0.03203600
 H          3.87580895    2.17425299    1.22095895
 H          1.57450700    1.95299399    0.84331000
 H          5.50091314    0.63489097    0.00613500
 H          4.14310122    0.62407500   -2.15130997
 H          2.33854198   -1.57069600   -1.20662498
 H          4.02295113    2.55206609   -0.50039297
 H          1.79715300    1.97118294   -0.92249101
 C          4.02343321   -0.50677103    1.10381198
 H          4.57257605   -1.00078499   -1.60164905
 H          1.91219795   -0.09713200   -2.10687399
 C          2.47129107   -0.57107401    1.16996598
 H          4.40796518   -0.17630699    2.07000589
 H          4.42906904   -1.49884403    0.89601701
 H          2.07214689   -0.04463800    2.03600097
 H          2.10251808   -1.59647298    1.16886997
