48
wb97x-d4 ma-def2-tzvp(-f) cpcm(dmso) E: -1056.431386960764, G: -1056.05495225
 C         -2.94256091    0.07584000   -1.18816805
 C         -1.41404402    0.10906800   -1.35559106
 O         -1.02328897   -0.51892900   -2.56218696
 C         -0.71015102   -0.53844702   -0.16189300
 C         -1.24328196   -0.00615700    1.15266502
 C         -2.76469588   -0.19974300    1.18336296
 C         -3.41270304    0.34662399    2.44196105
 O         -3.10820293    1.71912503    2.66690898
 O         -3.33123803    0.52677399    0.08520100
 O         -0.58841002   -0.67702597    2.21541309
 O         -3.36205602   -1.23187494   -1.45657599
 H         -3.00370693   -1.26493704    1.09900904
 H         -3.40754604    0.77349800   -1.89321697
 H         -1.04006004    1.06894100    1.18535101
 C         -4.77605200   -1.34807706   -1.62981796
 H         -1.71877205   -1.15157795   -2.79509592
 H         -4.49495316    0.19355300    2.37099504
 H         -3.04537201   -0.20622100    3.30794001
 H         -0.58703601   -0.09821200    2.98635197
 H         -3.48033810    2.22666001    1.93555903
 H         -4.97158813   -2.37450695   -1.93684995
 H         -5.12207890   -0.65743500   -2.40597391
 H         -5.29865122   -1.13866305   -0.69310200
 H         -1.11143804    1.15830004   -1.39759696
 O         -0.69808400   -1.92119002   -0.18808500
 H          0.41618899   -0.17861000   -0.21468100
 H         -0.57832801   -2.19724393   -1.10929704
 C          3.84985709    0.82663000   -1.44176304
 C          2.36194611    0.38045400   -1.51926196
 C          4.35960293    0.57572699   -0.01737000
 C          4.07304287   -0.88139302    0.36214599
 C          2.53143501   -1.08299005    0.42539400
 N          1.92269599    0.12391900   -0.14265800
 H          3.93349409    1.88604105   -1.69195902
 H          1.72320402    1.15456796   -1.94359004
 H          5.43140793    0.77326798    0.03775900
 H          4.50653219   -1.55721605   -0.37750599
 H          2.16947293   -1.18650806    1.44702697
 H          4.43202400    0.25789601   -2.16840291
 H          2.23697495   -0.54260600   -2.08419895
 C          3.60420704    1.49748802    0.94602102
 H          4.50388384   -1.12062097    1.33570802
 H          2.20400190   -1.93988705   -0.16285400
 C          2.07811093    1.29660201    0.72694200
 H          3.85825801    2.54236603    0.76108003
 H          3.86500311    1.26060998    1.97932696
 H          1.61822200    2.14639211    0.22392499
 H          1.55507398    1.09973001    1.66165197
