48
wb97x-d4 ma-def2-tzvp(-f) cpcm(dmso) E: -1056.430677481753, G: -1056.05492144
 C         -2.69989395   -0.84868002   -1.25057197
 C         -1.16703403   -0.88117403   -1.16352606
 O         -0.66288799   -2.17445302   -1.44046700
 C         -0.68316698   -0.39949900    0.20312400
 C         -1.35155594    0.89197803    0.65088803
 C         -2.87479496    0.73158002    0.53363401
 C         -3.59713411    2.01884890    0.85992903
 O         -4.99628687    1.74770606    0.92976099
 O         -3.20076299    0.38994700   -0.81733203
 O         -0.94008702    1.25514698    1.95356703
 O         -3.18227100   -1.93333304   -0.51005697
 H         -3.21332693   -0.05953500    1.21177101
 H         -3.01472092   -0.93486899   -2.29644704
 H         -1.03743601    1.69754303   -0.01845600
 C         -4.57343817   -2.18686795   -0.71941900
 H         -1.36433101   -2.80907512   -1.23288500
 H         -3.22681904    2.39613104    1.81708801
 H         -3.38176703    2.75882292    0.07992700
 H         -1.08788300    0.50016999    2.53849006
 H         -5.44666386    2.57061505    1.15068901
 H         -4.80715179   -3.11116695   -0.19303399
 H         -4.78148985   -2.30627489   -1.78781998
 H         -5.17989779   -1.37144101   -0.31739300
 H         -0.78608400   -0.19032000   -1.91952896
 O         -0.76269102   -1.34450996    1.21102095
 H          0.46654600   -0.13681500    0.06326900
 H         -0.54776597   -2.21274590    0.83910799
 C          3.70978403    1.78353703    0.22149099
 C          2.19455004    1.49307501    0.40976900
 C          4.42920780    0.45635700   -0.04124200
 C          3.95253992   -0.10580100   -1.38524795
 C          2.39860296   -0.16519301   -1.37272406
 N          1.97274101    0.09737300    0.00817200
 H          4.09632683    2.26268291    1.12242603
 H          1.88034701    1.59133005    1.44744897
 H          5.50906515    0.61199403   -0.06163600
 H          4.27944899    0.53123099   -2.20856595
 H          2.02388096   -1.14548695   -1.66503501
 H          3.85702300    2.46568298   -0.61810100
 H          1.57347202    2.13106894   -0.21824200
 C          4.06156111   -0.53358400    1.07084298
 H          4.36099386   -1.10573697   -1.54421902
 H          1.95139205    0.59883201   -2.00796509
 C          2.54429293   -0.86016101    0.96065599
 H          4.27774191   -0.10004900    2.04914808
 H          4.63332510   -1.45781398    0.97388399
 H          2.02806711   -0.74500602    1.91321599
 H          2.36643505   -1.86205995    0.57059401
