48
wb97x-d4 ma-def2-tzvp(-f) cpcm(dmso) E: -1056.432283618637, G: -1056.05489166
 C         -2.78698897   -0.10650000   -1.29900897
 C         -1.25188506   -0.13615300   -1.33059502
 O         -0.77473801   -1.06831205   -2.28302908
 C         -0.67418998   -0.43897700    0.05207700
 C         -1.30279505    0.40096399    1.15477002
 C         -2.82972097    0.29393801    1.05601096
 C         -3.53204703    1.21308601    2.03642511
 O         -4.94595003    1.05949497    1.97820306
 O         -3.24551010    0.71004301   -0.24963400
 O         -0.82381499    0.02378300    2.43064499
 O         -3.23207498   -1.42840803   -1.20490098
 H         -3.13979197   -0.74169397    1.23238897
 H         -3.16927600    0.35900900   -2.21411991
 H         -1.01656306    1.44538200    1.00181901
 C         -4.63879585   -1.56558704   -1.41954505
 H         -1.45779002   -1.74550700   -2.39555693
 H         -3.22554398    0.96236902    3.05164695
 H         -3.24431610    2.25084305    1.82739103
 H         -0.93485200   -0.93179703    2.52409101
 H         -5.22373819    1.27398205    1.07913899
 H         -5.20120287   -1.06437099   -0.62773699
 H         -4.85597801   -2.63257694   -1.40370905
 H         -4.91776800   -1.14469600   -2.39109993
 H         -0.91645700    0.86109102   -1.62528205
 O         -0.69540298   -1.77643096    0.40692201
 H          0.46553001   -0.11156000    0.00283700
 H         -0.51198697   -2.30864096   -0.38138399
 C          3.76017904    1.31357503   -1.16136897
 C          2.23854709    0.99226999   -1.17603004
 C          4.42945910    0.46720600   -0.07298500
 C          4.09987307   -1.00891399   -0.31829801
 C          2.56395292   -1.20838404   -0.16713201
 N          1.97155201    0.12533399   -0.02186500
 H          3.91153693    2.37579298   -0.96085501
 H          1.62805903    1.88901305   -1.07401097
 H          5.51028299    0.61635202   -0.09645500
 H          4.41319990   -1.30527306   -1.32099795
 H          2.31015992   -1.78380799    0.72239399
 H          4.18498182    1.08681202   -2.14052510
 H          1.94080305    0.45114499   -2.07360601
 C          3.87162089    0.88181901    1.29264605
 H          4.61742306   -1.64410198    0.40222901
 H          2.12386608   -1.68192697   -1.04424405
 C          2.32149506    0.76058900    1.25503898
 H          4.14649916    1.91219199    1.52376103
 H          4.27336407    0.23783299    2.07725596
 H          1.83099997    1.73295999    1.28699803
 H          1.93580699    0.13674299    2.05928493
