48
wb97x-d4 ma-def2-tzvp(-f) cpcm(dmso) E: -1056.430188957833, G: -1056.05489022
 C         -2.74940300   -1.44068694   -0.60975403
 C         -1.21136105   -1.37774897   -0.56816101
 O         -0.61044699   -2.59124994   -0.15872900
 C         -0.74138802   -0.30683100    0.40402400
 C         -1.40533102    1.02606702    0.11633100
 C         -2.92782688    0.83302200    0.11344300
 C         -3.68562889    2.09249210   -0.26234299
 O         -3.28938794    2.61496091   -1.52651095
 O         -3.26689100   -0.15239701   -0.86914402
 O         -0.99014097    1.96322799    1.09542096
 O         -3.22396111   -1.98480499    0.58188301
 H         -3.25471091    0.51001501    1.10719800
 H         -3.07261205   -2.05020595   -1.46268904
 H         -1.09700298    1.34336495   -0.88455498
 C         -4.62232113   -2.27261209    0.54737902
 H         -0.97884899   -3.32096195   -0.67162299
 H         -4.75809813    1.86977506   -0.25181600
 H         -3.48982692    2.86963391    0.47813499
 H         -1.05693400    2.84739709    0.71726102
 H         -3.50319695    1.95473003   -2.19688892
 H         -5.21156120   -1.35309994    0.49723700
 H         -4.85613489   -2.80533910    1.46830797
 H         -4.86095810   -2.90536594   -0.31454200
 H         -0.88300800   -1.09155500   -1.57349396
 O         -0.84832799   -0.66640800    1.73621297
 H          0.40842500   -0.14702401    0.17695500
 H         -0.77509600   -1.63187695    1.78620398
 C          3.95983100    0.04793200    1.39152205
 C          2.40671706   -0.01615700    1.45369506
 C          4.37242794    0.48123100   -0.01977100
 C          3.62221503    1.76693797   -0.38355201
 C          2.10442996    1.44178402   -0.47974801
 N          1.92332399    0.09399800    0.07411700
 H          4.38208818   -0.93134600    1.62532103
 H          2.05058098   -0.95925301    1.86735702
 H          5.44959402    0.65110099   -0.05999500
 H          3.79081511    2.53181601    0.37715799
 H          1.75050497    1.42615604   -1.51017404
 H          4.31696606    0.76024401    2.13692093
 H          1.98151803    0.81103599    2.02077103
 C          3.97423410   -0.61815101   -1.01139104
 H          3.96575904    2.15820098   -1.34245706
 H          1.49885201    2.13364697    0.10289900
 C          2.46992397   -0.95201802   -0.79882598
 H          4.56581020   -1.52075398   -0.85036498
 H          4.13948393   -0.28048900   -2.03642011
 H          2.32607698   -1.90862501   -0.29878601
 H          1.91082501   -0.94381100   -1.73401797
