48
wb97x-d4 ma-def2-tzvp(-f) cpcm(dmso) E: -1056.431233178874, G: -1056.0546864300002
 C         -2.83921504   -0.13819800   -1.26216197
 C         -1.30337203   -0.17082700   -1.30510902
 O         -0.84000099   -1.02318597   -2.33569288
 C         -0.70835501   -0.59000599    0.04130900
 C         -1.32818305    0.17986301    1.19080698
 C         -2.85403705    0.04321400    1.12129498
 C         -3.56902409    0.83844799    2.19767499
 O         -3.20948792    2.21602106    2.19314003
 O         -3.30225801    0.56385303   -0.13599600
 O         -0.80929798   -0.31944501    2.41097689
 O         -3.28815603   -1.46231794   -1.30522501
 H         -3.13371992   -1.01100099    1.21803105
 H         -3.22179794    0.41831899   -2.12471294
 H         -1.07338500    1.23614597    1.05908000
 C         -4.69091702   -1.57360196   -1.55640101
 H         -1.53140700   -1.68101501   -2.50079703
 H         -4.64900684    0.71635300    2.06165504
 H         -3.30005693    0.44401100    3.17860699
 H         -0.83291298    0.38983601    3.06310105
 H         -3.49283004    2.59210300    1.35094404
 H         -5.26651001   -1.15649295   -0.72633302
 H         -4.90902615   -2.63586807   -1.65633905
 H         -4.95335293   -1.05297399   -2.48334002
 H         -0.96790099    0.84619403   -1.52110505
 O         -0.72177899   -1.95411599    0.27061701
 H          0.42429799   -0.25219199    0.00292700
 H         -0.54044402   -2.39702892   -0.57221001
 C          3.63857603    1.27047205   -1.29100502
 C          2.10827708    1.05236697   -1.12250102
 C          4.36088800    0.56839001   -0.13612700
 C          4.12477922   -0.94245303   -0.24433200
 C          2.59175706   -1.20220196   -0.31930000
 N          1.93067098    0.07596600   -0.04111700
 H          3.85132694    2.34060311   -1.28617501
 H          1.59077203    1.96601903   -0.83117801
 H          5.43005323    0.78286600   -0.17807300
 H          4.59939480   -1.34539795   -1.14039302
 H          2.26095104   -1.92630696    0.42500901
 H          3.96752906    0.86176300   -2.24820399
 H          1.65304899    0.64787102   -2.02595806
 C          3.77553892    1.06576705    1.19014001
 H          4.54519415   -1.45385599    0.62360603
 H          2.27826691   -1.53059995   -1.30988801
 C          2.28788090    0.61886197    1.27502704
 H          3.83966208    2.15408397    1.24722898
 H          4.32350111    0.64696097    2.03569102
 H          1.62052298    1.45189595    1.49268603
 H          2.13353992   -0.16915999    2.01012397
