48
wb97x-d4 ma-def2-tzvp(-f) cpcm(dmso) E: -1056.433055188063, G: -1056.0563344000002
 C         -2.63642097   -1.06554401   -1.09188497
 C         -1.11659896   -0.92671400   -0.94035298
 O         -0.44828799   -2.14775896   -1.16917396
 C         -0.74805802   -0.31101900    0.40308401
 C         -1.55706894    0.94704598    0.71662599
 C         -3.04830790    0.66424900    0.50865299
 C         -3.90454793    1.91043997    0.64831299
 O         -3.54168606    2.93072200   -0.27565199
 O         -3.26441908    0.16854000   -0.81420600
 O         -1.37065601    1.30311704    2.08013105
 O         -3.07296705   -2.09762192   -0.26240101
 H         -3.37919497   -0.07208800    1.24939096
 H         -2.88519907   -1.28284705   -2.13643098
 H         -1.24887204    1.75414705    0.04758800
 C         -4.41978121   -2.49515796   -0.52226400
 H         -0.80973202   -2.79613996   -0.54985499
 H         -4.95475817    1.62658596    0.52036899
 H         -3.77516699    2.32519197    1.64805698
 H         -0.62150300    1.90679705    2.14777589
 H         -3.70392799    2.59244108   -1.16454196
 H         -4.62044716   -3.36008596    0.10866500
 H         -4.53922510   -2.77068806   -1.57555199
 H         -5.11862898   -1.69171906   -0.27439901
 H         -0.79510999   -0.23339000   -1.72059906
 O         -0.77902102   -1.23952103    1.42820895
 H          0.38107800    0.02343600    0.27387401
 H         -0.83525002   -0.73910397    2.25903392
 C          3.87803292    1.41787601    0.73623699
 C          2.32384706    1.38977206    0.75719303
 C          4.36967611    0.32168701   -0.21492501
 C          3.66555190    0.48664001   -1.56678998
 C          2.14881611    0.20583799   -1.36950803
 N          1.90998697    0.15560301    0.07823000
 H          4.26680088    1.24769902    1.74211502
 H          1.92850304    1.37010300    1.77250302
 H          5.45084381    0.39365301   -0.34421200
 H          3.81028008    1.49953401   -1.94763601
 H          1.84993601   -0.75443798   -1.78787601
 H          4.21329784    2.40117502    0.40258601
 H          1.88888597    2.22819090    0.21428800
 C          3.99829793   -1.04497194    0.37135100
 H          4.06565285   -0.21438500   -2.30107594
 H          1.52758098    0.99586397   -1.79095602
 C          2.47753310   -1.04447603    0.70108402
 H          4.56175184   -1.24213099    1.28472304
 H          4.22219801   -1.83783603   -0.34512201
 H          2.28910804   -0.98332798    1.77239501
 H          1.96719003   -1.91538405    0.29293901
