48
wb97x-d4 ma-def2-tzvp(-f) cpcm(dmso) E: -1056.430110876431, G: -1056.0546142
 C         -2.66892600   -1.32422495   -0.84564298
 C         -1.13522696   -1.26612997   -0.73637402
 O         -0.54793298   -2.49684310   -0.35847199
 C         -0.70868897   -0.24346600    0.30240500
 C         -1.38016105    1.10854995    0.10534200
 C         -2.89836788    0.90436798   -0.02115800
 C         -3.60513306    2.20174003   -0.36851901
 O         -5.02380514    2.07513309   -0.33968499
 O         -3.16530800   -0.02306900   -1.07534301
 O         -1.04432297    2.00172091    1.14845705
 O         -3.19420409   -1.91545606    0.30154899
 H         -3.28765202    0.51555598    0.92747098
 H         -2.95625591   -1.89713299   -1.73602998
 H         -1.00775194    1.54893398   -0.82376099
 C         -4.59416103   -2.17957711    0.20127200
 H         -0.87166601   -3.19796205   -0.93726200
 H         -3.26831603    2.98322105    0.31777301
 H         -3.33861709    2.49329209   -1.38741505
 H         -1.24018097    1.56885004    1.99039495
 H         -5.29760122    1.98058605    0.58041102
 H         -5.16701078   -1.24918103    0.16187300
 H         -4.87197924   -2.74200892    1.09184599
 H         -4.80712318   -2.77620697   -0.69253600
 H         -0.76705498   -0.93151700   -1.71265101
 O         -0.84972203   -0.66882300    1.61292696
 H          0.44858500   -0.05909600    0.11939900
 H         -0.78610098   -1.63592899    1.62645197
 C          3.99073195   -0.23491400    1.33865201
 C          2.47025299   -0.55188203    1.25550306
 C          4.43260813    0.37040401    0.00098000
 C          3.75791693    1.73670304   -0.16625699
 C          2.23011804    1.56121194    0.06009800
 N          1.96358800    0.11711100    0.05276100
 H          4.53543997   -1.15670598    1.54900301
 H          2.27683306   -1.61878800    1.14739799
 H          5.51787615    0.48147801   -0.02146900
 H          4.14519501    2.45334601    0.55973899
 H          1.64150798    2.02210808   -0.73251498
 H          4.18132305    0.46731201    2.15259194
 H          1.92253006   -0.16965200    2.11648011
 C          3.97195005   -0.54988497   -1.13504195
 H          3.94441009    2.13074398   -1.16729999
 H          1.90708303    1.95142698    1.02367997
 C          2.41869903   -0.52986097   -1.18489504
 H          4.32573318   -1.56838202   -0.96296197
 H          4.36433506   -0.20971800   -2.09466910
 H          1.99607301   -1.53313994   -1.22242606
 H          2.04047894    0.05575200   -2.02207494
