48
wb97x-d4 ma-def2-tzvp(-f) cpcm(dmso) E: -1056.432943654034, G: -1056.0544482300002
 C         -2.77452898   -0.46820700   -1.42764401
 C         -1.23793495   -0.51617998   -1.40210605
 O         -0.74247003   -1.60029900   -2.15475297
 C         -0.70573997   -0.51260298    0.02627700
 C         -1.35496294    0.56465799    0.88234597
 C         -2.88068390    0.45448500    0.76480800
 C         -3.59592605    1.58360195    1.49787903
 O         -3.31475401    1.54873502    2.90064001
 O         -3.25282693    0.57737702   -0.60522598
 O         -0.90247899    0.36074200    2.21159697
 O         -3.25912690   -1.72017395   -1.04857695
 H         -3.20686698   -0.51156902    1.16634703
 H         -3.11787009   -0.21416000   -2.43629694
 H         -1.04914606    1.54901302    0.50651997
 C         -4.65733480   -1.88032699   -1.29254794
 H         -1.14760900   -2.40429306   -1.80267704
 H         -3.23692799    2.54658389    1.12772906
 H         -4.67086887    1.51404405    1.31246901
 H         -1.54997396    0.78383398    2.80106211
 H         -3.87942791    0.88045299    3.30819106
 H         -4.88856316   -1.66590595   -2.34148192
 H         -5.24365282   -1.22008395   -0.64787298
 H         -4.89945984   -2.91827607   -1.06810105
 H         -0.88660502    0.39886099   -1.88478506
 O         -0.75698900   -1.76920998    0.60411102
 H          0.43672001   -0.21500200   -0.06346700
 H         -0.72815400   -1.64046001    1.56644595
 C          3.61518312    1.81681895   -0.42491901
 C          2.10553598    1.46429396   -0.55261499
 C          4.39355421    0.52812803   -0.13807701
 C          4.03303480   -0.51398402   -1.20284104
 C          2.53253198   -0.89096898   -1.03727496
 N          1.95299494    0.07707200   -0.09813500
 H          3.76116610    2.53517699    0.38411799
 H          1.48258495    2.10064101    0.07506700
 H          5.46639681    0.72684401   -0.15580601
 H          4.20546913   -0.10983400   -2.20225692
 H          2.40142298   -1.88484800   -0.61038202
 H          3.95528412    2.27547503   -1.35465598
 H          1.75605702    1.51541197   -1.58338702
 C          3.97957706   -0.01011700    1.23627496
 H          4.64164782   -1.41230905   -1.08814895
 H          1.98581398   -0.82545501   -1.97642303
 C          2.42873812   -0.11940600    1.27582598
 H          4.30938578    0.65966201    2.03203511
 H          4.42699909   -0.99102998    1.40843594
 H          1.97611904    0.65236598    1.89618504
 H          2.09465599   -1.09957802    1.61609399
