48
wb97x-d4 ma-def2-tzvp(-f) cpcm(dmso) E: -1056.431354579237, G: -1056.0543256
 C         -2.66825294   -1.42879105   -0.87835300
 C         -1.14624596   -1.39077199   -0.66143203
 O         -0.65783101   -2.65094709   -0.24352001
 C         -0.74831998   -0.30425599    0.33791301
 C         -1.43839598    1.01957297    0.06299800
 C         -2.95133901    0.79011899   -0.04684200
 C         -3.70663309    2.06047893   -0.42236000
 O         -3.77450895    2.98527908    0.65527499
 O         -3.18528891   -0.14001299   -1.10634506
 O         -1.10907102    1.99412596    1.04085195
 O         -3.22854996   -2.05648994    0.23814701
 H         -3.34079194    0.40056801    0.89969701
 H         -2.89927506   -1.99412405   -1.78756905
 H         -1.08737898    1.40550601   -0.89791501
 C         -4.60177803   -2.41304398    0.06100200
 H         -1.38609397   -3.10917997    0.20153999
 H         -3.23916006    2.51586795   -1.30454195
 H         -4.73288488    1.79057002   -0.67804903
 H         -1.21461105    1.59364605    1.91517699
 H         -2.86637402    3.14803410    0.94609600
 H         -4.72388983   -3.01500201   -0.84543598
 H         -5.22727680   -1.51936805   -0.00528800
 H         -4.88937378   -2.99760795    0.93359601
 H         -0.68910801   -1.14335406   -1.62291503
 O         -0.90124398   -0.65263200    1.66771102
 H          0.41066399   -0.11098300    0.15401500
 H         -0.65775299   -1.58465600    1.77201104
 C          3.89330292    0.55237198    1.38104105
 C          2.34070206    0.46317500    1.40878499
 C          4.35835218    0.50386602   -0.07901900
 C          3.61986995    1.58823597   -0.87248898
 C          2.10330701    1.24266100   -0.89200699
 N          1.90695095    0.13120601    0.04747600
 H          4.32396698   -0.27909899    1.94219601
 H          1.98607898   -0.31836501    2.08020401
 H          5.43561506    0.66884100   -0.13442300
 H          3.77110505    2.56507993   -0.40917501
 H          1.76802695    0.90906900   -1.87371695
 H          4.20642710    1.48325300    1.85633194
 H          1.87800598    1.41115797    1.68076706
 C          4.00458479   -0.86674798   -0.66666597
 H          3.98955488    1.63686705   -1.89793003
 H          1.48929405    2.08002710   -0.56259298
 C          2.48914790   -1.12642705   -0.43809301
 H          4.58066320   -1.65638804   -0.18171699
 H          4.22796679   -0.88893902   -1.73504305
 H          2.30944395   -1.88764906    0.31991899
 H          1.97840297   -1.40474498   -1.35931504
