48
wb97x-d4 ma-def2-tzvp(-f) cpcm(dmso) E: -1056.431261676328, G: -1056.0542789200001
 C         -2.93939090    0.11270200   -1.28828394
 C         -1.40828097    0.08777200   -1.43969905
 O         -1.01999605   -0.67179400   -2.56757402
 C         -0.73213899   -0.44402301   -0.17660201
 C         -1.28437901    0.19260600    1.08464897
 C         -2.81108689    0.04688700    1.09398198
 C         -3.45226192    0.73457903    2.29356790
 O         -3.22482109    0.02075900    3.50194407
 O         -3.32425094    0.70066297   -0.06836300
 O         -0.67733598   -0.34457299    2.24952793
 O         -3.39454103   -1.20141304   -1.43111300
 H         -3.08727598   -1.01276302    1.09194005
 H         -3.37640190    0.75193602   -2.06284094
 H         -1.05091703    1.26069498    1.07139003
 C         -4.80978680   -1.28996098   -1.61647499
 H         -1.72030103   -1.32030201   -2.73305202
 H         -3.08068490    1.76448703    2.36728191
 H         -4.53222990    0.76830602    2.13873410
 H         -0.68932199   -1.30945301    2.18058300
 H         -2.26776600   -0.09015400    3.58853602
 H         -5.03700495   -2.33833098   -1.80379200
 H         -5.11824989   -0.68469900   -2.47520804
 H         -5.33802319   -0.95283198   -0.72121602
 H         -1.07935095    1.11942506   -1.58684504
 O         -0.72993499   -1.82118905   -0.05296700
 H          0.40729699   -0.09634500   -0.23903000
 H         -0.58208197   -2.20834303   -0.92899197
 C          3.85757589    0.82195699   -1.43018496
 C          2.36962008    0.38350299   -1.52730298
 C          4.33994818    0.59040898    0.00708300
 C          4.02030993   -0.85330701    0.41059300
 C          2.47544003   -1.02044201    0.46460900
 N          1.89458394    0.17827100   -0.15224400
 H          3.95307994    1.87693405   -1.69480705
 H          1.74645805    1.14568400   -1.99437499
 H          5.41388178    0.77041399    0.07685100
 H          4.44541883   -1.55156696   -0.31297401
 H          2.10261011   -1.08091998    1.48619795
 H          4.44864321    0.23864301   -2.13783312
 H          2.25114393   -0.55860001   -2.06143904
 C          3.58359194    1.54346097    0.93867701
 H          4.43790102   -1.08394802    1.39195800
 H          2.13624001   -1.89135599   -0.09555400
 C          2.06025791    1.37614501    0.68390697
 H          3.86688995    2.57947612    0.74634701
 H          3.81321311    1.31505597    1.98131204
 H          1.63766396    2.22017789    0.13991000
 H          1.50603902    1.22536802    1.60918498
