48
wb97x-d4 ma-def2-tzvp(-f) cpcm(dmso) E: -1056.429421266559, G: -1056.05383435
 C         -2.93193293    0.07487500   -1.30405605
 C         -1.40017605    0.13597400   -1.45290601
 O         -0.92215300   -0.57459402   -2.57880592
 C         -0.72015703   -0.46500900   -0.23285300
 C         -1.24334300    0.15738501    1.04828095
 C         -2.77301502    0.03954600    1.08197200
 C         -3.38278890    0.78793699    2.26299095
 O         -2.91699100    0.27550000    3.51367497
 O         -3.31316209    0.67087299   -0.07929400
 O         -0.61255801   -0.46907601    2.14821911
 O         -3.35739207   -1.24564695   -1.41943502
 H         -3.05918002   -1.01728797    1.11612403
 H         -3.40398097    0.69734299   -2.07414603
 H         -1.00009298    1.22873104    1.01567805
 C         -4.77731705   -1.36620295   -1.51498699
 H         -1.43470800   -0.32518399   -3.35732102
 H         -3.07880902    1.83639395    2.22172999
 H         -4.47315216    0.73661500    2.20075202
 H         -1.14225602   -0.25221899    2.93299890
 H         -3.39014912   -0.54383999    3.70474005
 H         -5.26089478   -1.05638802   -0.58480000
 H         -4.99099684   -2.41726303   -1.70509803
 H         -5.15696907   -0.75781298   -2.34319496
 H         -1.13110805    1.19639003   -1.50836897
 O         -0.74745297   -1.84747303   -0.19949500
 H          0.41560200   -0.13728800   -0.29102600
 H         -0.77900600   -2.15930390   -1.11705995
 C          3.91856694    0.76048899   -1.41434705
 C          2.41698098    0.37109599   -1.53821003
 C          4.37112379    0.50487798    0.02830800
 C          4.02720785   -0.93876803    0.41141000
 C          2.47863197   -1.09692895    0.40943199
 N          1.92780399    0.12854999   -0.17655499
 H          4.05182409    1.81322801   -1.67087495
 H          1.82023704    1.16937101   -1.97830498
 H          5.44617891    0.66938603    0.11826100
 H          4.47321987   -1.63633895   -0.29992899
 H          2.07203889   -1.19572902    1.41462600
 H          4.50250006    0.16253100   -2.11564898
 H          2.27454305   -0.54500002   -2.10994005
 C          3.61401010    1.45940101    0.95815003
 H          4.40877199   -1.17594504    1.40577900
 H          2.15215802   -1.94126701   -0.19710200
 C          2.08864498    1.29595304    0.69928902
 H          3.90164304    2.49424601    0.76598799
 H          3.83936095    1.23088002    2.00155807
 H          1.66362405    2.15736294    0.18545599
 H          1.53507102    1.10963094    1.61834097
