48
wb97x-d4 ma-def2-tzvp(-f) cpcm(dmso) E: -1056.431248127542, G: -1056.05373878
 C         -2.76993489   -0.85086203   -1.29265296
 C         -1.23485506   -0.88620901   -1.22424197
 O         -0.73918998   -2.17252111   -1.54219198
 C         -0.73102200   -0.44238001    0.14914800
 C         -1.40404105    0.82990497    0.63080800
 C         -2.92680693    0.66216397    0.54541302
 C         -3.67141795    1.94199502    0.90970200
 O         -3.62846994    2.21136808    2.30510902
 O         -3.27396488    0.37076500   -0.80943102
 O         -0.97470200    1.18746805    1.93536305
 O         -3.24005699   -1.95978403   -0.58280599
 H         -3.24997807   -0.14836399    1.20738196
 H         -3.09681702   -0.90125000   -2.33689690
 H         -1.11740994    1.65078104   -0.03192200
 C         -4.63115120   -2.21801901   -0.78892601
 H         -1.43726397   -2.81076503   -1.33334696
 H         -3.25986505    2.78011608    0.33318201
 H         -4.72184420    1.82076800    0.63872701
 H         -1.04128098    0.40485600    2.49991703
 H         -2.69626307    2.21711612    2.56316304
 H         -5.24032688   -1.41928005   -0.35848099
 H         -4.85347891   -3.15882611   -0.28757101
 H         -4.84629107   -2.30813789   -1.85868204
 H         -0.86013198   -0.17616200   -1.96540296
 O         -0.79160601   -1.41172898    1.13406599
 H          0.41761899   -0.16812900   -0.00197700
 H         -0.57069600   -2.26899004    0.74069202
 C          3.58641911    1.87123001    0.10272900
 C          2.07055497    1.55149603    0.23563400
 C          4.35124493    0.55496699   -0.06926600
 C          3.92138290   -0.10272900   -1.38539302
 C          2.37293601   -0.25146699   -1.38390005
 N          1.90683699    0.11850500   -0.04140300
 H          3.92249990    2.39781308    0.99739301
 H          1.69470596    1.73888898    1.24013102
 H          5.42563200    0.74600297   -0.08037100
 H          4.22352409    0.50779903   -2.23776889
 H          2.05851007   -1.27556396   -1.58166206
 H          3.75399590    2.52057004   -0.75855500
 H          1.46988106    2.10606003   -0.48458299
 C          3.99827290   -0.38129401    1.09233296
 H          4.38694000   -1.08486605   -1.48724496
 H          1.89362395    0.41910899   -2.09650612
 C          2.48349309   -0.72818899    1.00848806
 H          4.21451187    0.10126200    2.04729009
 H          4.58061981   -1.30228305    1.03628898
 H          1.96063805   -0.51579601    1.94065595
 H          2.31502008   -1.76741195    0.72756797
