48
wb97x-d4 ma-def2-tzvp(-f) cpcm(dmso) E: -1056.428648026577, G: -1056.0535959200001
 C         -2.66741204   -1.23928905   -1.01793694
 C         -1.14147794   -1.09884501   -0.98012501
 O         -0.49319300   -2.34801102   -1.09152102
 C         -0.74465197   -0.32474801    0.27090001
 C         -1.45634401    1.02149904    0.33370399
 C         -2.97185993    0.76378602    0.25018299
 C         -3.78860998    2.04471111    0.21365900
 O         -3.44778204    2.90222192   -0.87121898
 O         -3.28485394    0.01836200   -0.93023503
 O         -1.12438405    1.73608100    1.50573504
 O         -3.00339508   -2.09982991    0.03965300
 H         -3.27750397    0.19805200    1.13912201
 H         -2.99392891   -1.66249096   -1.97331798
 H         -1.14579296    1.63106000   -0.51789600
 C         -4.37116623   -2.51852298    0.03308300
 H         -0.98390001   -2.99810791   -0.57085198
 H         -4.83902693    1.77311003    0.08772400
 H         -3.67776990    2.56019902    1.17072201
 H         -1.24132597    1.13849199    2.25745296
 H         -2.72370410    3.47530508   -0.59697300
 H         -5.03418303   -1.66898501    0.21305400
 H         -4.48034906   -3.24732399    0.83451498
 H         -4.61771297   -2.98229599   -0.92711997
 H         -0.84719902   -0.50011897   -1.84488904
 O         -0.83184999   -1.00514901    1.47797298
 H          0.43701699   -0.07568700    0.14549100
 H         -1.40449798   -1.78112400    1.38039804
 C          3.76104403    1.23379302    1.12721801
 C          2.21331096    1.14711595    1.07020497
 C          4.33566523    0.46641701   -0.06881900
 C          3.65854192    0.96686202   -1.35032105
 C          2.16044211    0.56707799   -1.30317998
 N          1.87213099    0.12076400    0.07049700
 H          4.12572908    0.80215299    2.06148696
 H          1.78043902    0.84743899    2.02374291
 H          5.41459608    0.61631203   -0.13051300
 H          3.75364709    2.05175495   -1.42850196
 H          1.93443596   -0.26327300   -1.97184300
 H          4.06176090    2.28227305    1.09706295
 H          1.75763798    2.08233500    0.74794501
 C          4.01866198   -1.02369499    0.10587000
 H          4.12011290    0.52054900   -2.23256707
 H          1.50130498    1.40458906   -1.53183496
 C          2.49686193   -1.17724395    0.37457901
 H          4.57464504   -1.44251394    0.94612199
 H          4.29529476   -1.57662296   -0.79430097
 H          2.28383994   -1.40746999    1.41810203
 H          2.03675890   -1.93096399   -0.26223400
