48
wb97x-d4 ma-def2-tzvp(-f) cpcm(dmso) E: -1056.433106526413, G: -1056.05632826
 C         -2.87994409    0.02152300   -1.39195800
 C         -1.34620500   -0.01418000   -1.50059295
 O         -0.92316699   -0.76839900   -2.61382508
 C         -0.71007299   -0.49164101   -0.20132300
 C         -1.27493501    0.22880800    1.01352894
 C         -2.80603194    0.14509600    0.98659903
 C         -3.44542003    0.94847602    2.11253691
 O         -3.05663204    0.44060799    3.39246011
 O         -3.27888107    0.72008902   -0.22844200
 O         -0.71585703   -0.39902601    2.15624404
 O         -3.35498595   -1.28899097   -1.42504895
 H         -3.11429501   -0.90394801    1.06102800
 H         -3.29412699    0.60024601   -2.22459102
 H         -0.99005002    1.28721595    0.96246701
 C         -4.77000999   -1.36834097   -1.60341704
 H         -1.30994201   -1.65028799   -2.52810788
 H         -3.10125589    1.98414302    2.06608009
 H         -4.53248978    0.93352801    1.99919200
 H         -1.30694401   -0.20876500    2.90469408
 H         -3.59444690   -0.33667400    3.58861089
 H         -5.01657486   -2.42505908   -1.69801104
 H         -5.06954908   -0.83672202   -2.51297092
 H         -5.29576206   -0.94496399   -0.74354500
 H         -1.02026498    1.01510298   -1.66669297
 O         -0.73838198   -1.86993301   -0.07955400
 H          0.42439601   -0.16850100   -0.26427200
 H         -0.63697398   -2.07507992    0.86432201
 C          3.89785099    0.74167103   -1.48775494
 C          2.41068292    0.29375499   -1.57391095
 C          4.37612915    0.56471002   -0.04144600
 C          4.06744099   -0.86640000    0.41258499
 C          2.52271700   -1.04758799    0.45927599
 N          1.93914998    0.12775099   -0.19430400
 H          3.98979497    1.78656006   -1.79066098
 H          1.78488302    1.03947902   -2.06314611
 H          5.44838619    0.75579101    0.02552400
 H          4.50539780   -1.58683598   -0.28087899
 H          2.14315200   -1.08315599    1.47980905
 H          4.49319601    0.13488901   -2.17167306
 H          2.29754496   -0.66391897   -2.08020401
 C          3.60960603    1.54469001    0.85289598
 H          4.47827291   -1.05596602    1.40548897
 H          2.19582796   -1.93613005   -0.08037800
 C          2.08714890    1.34998500    0.60551202
 H          3.88082004    2.57551193    0.61964899
 H          3.84130096    1.35980594    1.90355504
 H          1.65263295    2.17251897    0.03841600
 H          1.53687501    1.21855295    1.53623700
