48
wb97x-d4 ma-def2-tzvp(-f) cpcm(dmso) E: -1056.431299835006, G: -1056.0533398
 C         -2.81067491   -0.27524200   -1.37789404
 C         -1.27488506   -0.25980499   -1.36831295
 O         -0.74478400   -1.21777594   -2.26595211
 C         -0.72686100   -0.48333299    0.04097300
 C         -1.41151202    0.39703301    1.07456994
 C         -2.93155098    0.23009700    0.95094401
 C         -3.70649600    1.12035298    1.90743804
 O         -3.37768888    2.50182605    1.78881001
 O         -3.33052611    0.56817102   -0.38109601
 O         -0.95575398    0.12369600    2.38508511
 O         -3.21412802   -1.60859895   -1.24044096
 H         -3.20151591   -0.81033897    1.16705096
 H         -3.18004489    0.13576099   -2.32394600
 H         -1.15743899    1.43775105    0.85937798
 C         -4.60610104   -1.80680501   -1.49705696
 H         -1.40840101   -1.91497505   -2.37204099
 H         -4.76927519    1.02315199    1.67480397
 H         -3.54277110    0.76746500    2.92860603
 H         -1.06355798   -0.82202399    2.55268097
 H         -2.62212110    2.68676496    2.35729289
 H         -4.78364086   -2.88042808   -1.45424795
 H         -4.86772394   -1.42742205   -2.49037910
 H         -5.21430683   -1.30345500   -0.74127501
 H         -0.96017802    0.73335397   -1.69777799
 O         -0.72300100   -1.80175900    0.46072000
 H          0.40612000   -0.12910099    0.00297500
 H         -0.51963902   -2.36808705   -0.29836899
 C          3.64835000    1.55523396   -0.95547903
 C          2.14233088    1.17600203   -1.03135204
 C          4.35951900    0.54561102   -0.04671500
 C          4.05155993   -0.87182498   -0.54255098
 C          2.53020906   -1.13973105   -0.36194000
 N          1.90961695    0.14315900   -0.01396700
 H          3.75715804    2.56501007   -0.55496800
 H          1.49250102    2.02266598   -0.81103098
 H          5.43630505    0.72187001   -0.06254100
 H          4.32282782   -0.97131997   -1.59534705
 H          2.32816696   -1.83629501    0.45109400
 H          4.07278013    1.53951001   -1.96050501
 H          1.87264395    0.75323200   -1.99887896
 C          3.82036591    0.70078498    1.37948406
 H          4.61579800   -1.61237705    0.02630800
 H          2.06758094   -1.50609398   -1.27781796
 C          2.26972389    0.59180099    1.33646703
 H          4.10010576    1.66978896    1.79581797
 H          4.22919893   -0.07877800    2.02531695
 H          1.78364396    1.55188799    1.50619102
 H          1.88806701   -0.13640900    2.04987693
