48
wb97x-d4 ma-def2-tzvp(-f) cpcm(dmso) E: -1056.43014553355, G: -1056.05303839
 C         -2.69210505   -1.48613095   -0.78840798
 C         -1.16252995   -1.45437896   -0.63770002
 O         -0.66509700   -2.71441889   -0.22694699
 C         -0.72536403   -0.36090201    0.33808699
 C         -1.38320506    0.96863198    0.01726000
 C         -2.90442705    0.77353603   -0.03356300
 C         -3.64495802    2.02702498   -0.47542700
 O         -3.43844390    3.04077601    0.51286399
 O         -3.20825505   -0.20049600   -1.03262901
 O         -0.97732902    1.92080104    0.98109102
 O         -3.21357894   -2.07715392    0.36652601
 H         -3.26872993    0.45041901    0.94701999
 H         -2.96636891   -2.07380199   -1.67127800
 H         -1.05729699    1.26439297   -0.98995399
 C         -4.59457302   -2.42853093    0.25021100
 H         -1.38224900   -3.17436695    0.23344700
 H         -3.26025605    2.35220098   -1.44781494
 H         -4.70953321    1.79414403   -0.57433301
 H         -1.62072599    2.64794588    0.94650000
 H         -3.72606206    3.88533401    0.14780900
 H         -5.21585417   -1.53310704    0.16956300
 H         -4.85669804   -2.97543812    1.15466905
 H         -4.75248909   -3.06514597   -0.62658399
 H         -0.74393702   -1.22044206   -1.61957097
 O         -0.86953503   -0.69838798    1.67090797
 H          0.42904201   -0.19817400    0.13957500
 H         -0.66161400   -1.64044702    1.76140594
 C          3.95307302    0.11903500    1.41258204
 C          2.40033197    0.03149200    1.44944298
 C          4.38434601    0.50038302   -0.00803900
 C          3.61839890    1.75668502   -0.43738899
 C          2.10877991    1.39963901   -0.54989898
 N          1.94167197    0.07358900    0.05736800
 H          4.38655996   -0.84255397    1.69425499
 H          2.05108404   -0.89857697    1.89715600
 H          5.45893002    0.68818098   -0.03593400
 H          3.75844789    2.55362606    0.29567200
 H          1.77783501    1.33302498   -1.58595502
 H          4.28484583    0.86741900    2.13396096
 H          1.95130503    0.87574202    1.97135401
 C          4.02453423   -0.64722002   -0.95882797
 H          3.97372699    2.11644101   -1.40435505
 H          1.47674704    2.10320711   -0.01042700
 C          2.52221799   -0.99804902   -0.76089102
 H          4.62826490   -1.53133404   -0.74794799
 H          4.20388794   -0.35095799   -1.99419200
 H          2.38577604   -1.93629503   -0.22461399
 H          1.98140597   -1.03735995   -1.70604503
