48
wb97x-d4 ma-def2-tzvp(-f) cpcm(dmso) E: -1056.430621124277, G: -1056.05295184
 C         -2.68699598   -1.13950300   -1.09785998
 C         -1.15620899   -1.09007704   -0.97479397
 O         -0.60558701   -2.39428401   -0.96416301
 C         -0.72243899   -0.31625399    0.27140501
 C         -1.42865801    1.02282596    0.36512601
 C         -2.94458389    0.79564101    0.28357199
 C         -3.72964001    2.10336494    0.24211501
 O         -3.51893497    2.88942504    1.41713703
 O         -3.25101805    0.14089800   -0.94798899
 O         -1.03218305    1.66805398    1.55934596
 O         -3.15340090   -2.06050801   -0.15454499
 H         -3.27090096    0.18827200    1.13495302
 H         -2.96824408   -1.45681703   -2.10785508
 H         -1.13648605    1.61246705   -0.51536798
 C         -4.51635122   -2.44018197   -0.35964000
 H         -1.29037797   -2.99447489   -0.63433599
 H         -3.38691497    2.70511293   -0.60270202
 H         -4.79148388    1.88170302    0.10583900
 H         -1.69305503    2.35715795    1.73812497
 H         -4.04446507    2.51486802    2.13486409
 H         -4.65275383   -2.83401108   -1.37220001
 H         -5.18240499   -1.58769000   -0.20466200
 H         -4.73946810   -3.21655297    0.37074199
 H         -0.77595800   -0.56123400   -1.85191298
 O         -0.81616497   -1.03366804    1.44999194
 H          0.42119601   -0.07196300    0.10221700
 H         -0.57809800   -1.95301402    1.25746596
 C          4.00130510   -0.28234401    1.24581099
 C          2.47707009   -0.59073001    1.18719196
 C          4.41354704    0.37511799   -0.07661600
 C          3.73514104    1.74627399   -0.17751700
 C          2.21073699    1.56057000    0.06859300
 N          1.94865298    0.11771100    0.01789100
 H          4.54719400   -1.21361804    1.40487099
 H          2.27738595   -1.65311801    1.04999006
 H          5.49803877    0.48864499   -0.11780700
 H          4.13521814    2.43372393    0.56939101
 H          1.60848200    2.04610896   -0.69878799
 H          4.21357489    0.38552499    2.08286905
 H          1.95046604   -0.23286700    2.07140708
 C          3.93014693   -0.50299299   -1.23640001
 H          3.90304494    2.17977810   -1.16539395
 H          1.90436900    1.91842198    1.05014598
 C          2.37575507   -0.48733199   -1.24954903
 H          4.29047298   -1.52604496   -1.11158705
 H          4.29903412   -0.12517700   -2.19119692
 H          1.95545101   -1.49038696   -1.30939400
 H          1.97650003    0.12317800   -2.05878401
