48
wb97x-d4 ma-def2-tzvp(-f) cpcm(dmso) E: -1056.43013261142, G: -1056.05289751
 C         -2.83262992   -0.22913000   -1.47042298
 C         -1.29661405   -0.19745000   -1.50973296
 O         -0.79238701   -1.12137794   -2.45666790
 C         -0.70666498   -0.47002199   -0.12596400
 C         -1.34754503    0.40554199    0.93448299
 C         -2.87184691    0.23051199    0.87867498
 C         -3.60626602    1.18436801    1.80884194
 O         -3.22940707    0.87891799    3.15452409
 O         -3.33178711    0.57489002   -0.42890400
 O         -0.79672003    0.07098300    2.19300294
 O         -3.22445893   -1.56729901   -1.36764097
 H         -3.13180089   -0.80529898    1.12030995
 H         -3.23626304    0.21416000   -2.38735509
 H         -1.12863803    1.45108199    0.67487800
 C         -4.62039518   -1.76617301   -1.60381997
 H         -1.45708799   -1.81666505   -2.56786394
 H         -3.33400297    2.21454000    1.55644202
 H         -4.68417597    1.05701101    1.67043495
 H         -1.39947295    0.42835599    2.86575699
 H         -3.52634692    1.59666896    3.72544503
 H         -5.21645498   -1.28879797   -0.82205999
 H         -4.79127121   -2.84157896   -1.58927000
 H         -4.90261412   -1.35940897   -2.58049202
 H         -0.99698901    0.80781800   -1.81494904
 O         -0.70587897   -1.80247402    0.24097200
 H          0.42343599   -0.12463900   -0.18389399
 H         -0.51307398   -2.32820797   -0.54971302
 C          3.96125889    0.58080101   -1.33900404
 C          2.46896291    0.15831900   -1.44612801
 C          4.38542795    0.48643300    0.13175800
 C          4.00419617   -0.89863300    0.66759801
 C          2.45276904   -1.00235200    0.69859803
 N          1.93884695    0.13036500   -0.07740100
 H          4.08742189    1.60201204   -1.70405698
 H          1.88140297    0.86789399   -2.02813601
 H          5.46141815    0.64224702    0.22439000
 H          4.41799593   -1.67984402    0.02673600
 H          2.05407405   -0.91998798    1.70878601
 H          4.56422806   -0.08094900   -1.96273804
 H          2.35241294   -0.83977199   -1.86655796
 C          3.62565207    1.55190504    0.93027800
 H          4.39014101   -1.04658496    1.67741203
 H          2.09356403   -1.92397594    0.24180000
 C          2.10893011    1.41170299    0.61878598
 H          3.95580506    2.55423498    0.65291601
 H          3.79947209    1.41874897    1.99991095
 H          1.75005496    2.19879508   -0.04380100
 H          1.50331497    1.39231598    1.52383804
