48
wb97x-d4 ma-def2-tzvp(-f) cpcm(dmso) E: -1056.430290339615, G: -1056.0528450000002
 C         -2.67460394   -1.18853402   -1.08352494
 C         -1.14569294   -1.14534199   -0.94338799
 O         -0.60159498   -2.45170999   -0.90619397
 C         -0.71909100   -0.35272500    0.29473999
 C         -1.42575300    0.98869199    0.36708501
 C         -2.94129896    0.77421898    0.25274900
 C         -3.70678401    2.09144807    0.16720399
 O         -3.52098894    2.89341402    1.33568704
 O         -3.23002505    0.09924900   -0.97128898
 O         -1.05852401    1.64014697    1.56725597
 O         -3.15958405   -2.08319712   -0.12460700
 H         -3.29451799    0.18868101    1.10877395
 H         -2.94569993   -1.52764404   -2.08930206
 H         -1.10904205    1.57236600   -0.50907803
 C         -4.52744484   -2.44483900   -0.32979700
 H         -1.29246199   -3.04385209   -0.57472497
 H         -3.32938194    2.67466593   -0.67594302
 H         -4.76696301    1.88229299    0.00168700
 H         -1.71715999    2.33795094    1.71878004
 H         -4.07488680    2.53877592    2.04213691
 H         -4.66514206   -2.85601306   -1.33525002
 H         -5.18035078   -1.57878494   -0.19536300
 H         -4.76714182   -3.20284891    0.41444701
 H         -0.75402898   -0.63389802   -1.82574296
 O         -0.81495601   -1.05524898    1.48191798
 H          0.42529601   -0.10604800    0.12586400
 H         -0.57941401   -1.97759604    1.30036604
 C          3.80626011    1.34168506    1.00158596
 C          2.25727201    1.22430599    0.94154102
 C          4.40548086    0.44256899   -0.08492200
 C          3.76370597    0.79492700   -1.43226695
 C          2.25124598    0.43587199   -1.36862195
 N          1.94961202    0.11590000    0.03077800
 H          4.16430902    1.03425300    1.98604703
 H          1.82239699    0.99629402    1.91357899
 H          5.48611212    0.58544201   -0.13653900
 H          3.88381505    1.85940897   -1.64213300
 H          2.01306701   -0.44203299   -1.96849799
 H          4.09248781    2.38272905    0.84397000
 H          1.79048097    2.12164593    0.53807098
 C          4.08448076   -1.01820695    0.25000200
 H          4.23053885    0.23230800   -2.24220705
 H          1.61682296    1.26803505   -1.67275095
 C          2.54821110   -1.15187705    0.46098399
 H          4.59934616   -1.32877600    1.16044104
 H          4.40418720   -1.67313099   -0.56287301
 H          2.28922391   -1.30221498    1.50856400
 H          2.11819005   -1.95275700   -0.13924100
