48
wb97x-d4 ma-def2-tzvp(-f) cpcm(dmso) E: -1056.431728532615, G: -1056.05631962
 C         -2.79191589   -0.91542703   -1.13864505
 C         -1.25446105   -0.84869301   -1.15901101
 O         -0.64252597   -2.07999897   -1.49276197
 C         -0.71936500   -0.44932100    0.20375501
 C         -1.38825703    0.80514401    0.74164099
 C         -2.91226697    0.63546300    0.68202102
 C         -3.65665603    1.90623796    1.05004096
 O         -3.33131099    2.99761891    0.19571599
 O         -3.30578995    0.30883700   -0.65511000
 O         -0.94280100    1.10490406    2.04990005
 O         -3.19749904   -2.01043797   -0.37988600
 H         -3.21416807   -0.16129500    1.37158203
 H         -3.17501712   -0.99595302   -2.16331005
 H         -1.10797298    1.64895105    0.10804200
 C         -4.60023499   -2.26353407   -0.46984401
 H         -1.00821102   -2.40400004   -2.32493711
 H         -4.73251677    1.70140803    1.02437103
 H         -3.38229108    2.20211792    2.06303000
 H         -1.09128106    0.32755899    2.60457802
 H         -3.60654402    2.76089907   -0.69827002
 H         -4.90562487   -2.35435510   -1.51800096
 H         -5.17435884   -1.46513796    0.00792000
 H         -4.78341579   -3.20432806    0.04771100
 H         -0.98559898   -0.06246600   -1.87297201
 O         -0.74487799   -1.46135294    1.14956903
 H          0.41878200   -0.16201800    0.03576400
 H         -0.69076002   -2.31145501    0.68758798
 C          3.63566208    1.73667204    0.55732203
 C          2.10551095    1.51297605    0.39296201
 C          4.37020683    0.51661998   -0.00917100
 C          3.87557101    0.26521301   -1.43815994
 C          2.37849092   -0.15015800   -1.37505496
 N          1.92174304    0.11070400   -0.00427100
 H          3.87975192    1.86848295    1.61326003
 H          1.56223702    1.67659795    1.32218301
 H          5.44691706    0.69405401   -0.01004300
 H          3.98626709    1.16910005   -2.04045200
 H          2.23614001   -1.21116197   -1.57529104
 H          3.92474699    2.64405394    0.02460100
 H          1.67943096    2.13705993   -0.39210400
 C          4.03941393   -0.70669597    0.85360199
 H          4.44798994   -0.53329498   -1.91289902
 H          1.76141298    0.43350101   -2.05750489
 C          2.49300194   -0.82683498    0.96717000
 H          4.46371889   -0.60206097    1.85336196
 H          4.45056915   -1.61113596    0.40113199
 H          2.12863111   -0.54424500    1.95413005
 H          2.13952994   -1.82881498    0.72474700
