48
wb97x-d4 ma-def2-tzvp(-f) cpcm(dmso) E: -1056.430115699305, G: -1056.0526072100001
 C         -2.80367398   -0.89394999   -1.26307905
 C         -1.26394403   -0.85706902   -1.26691794
 O         -0.67331702   -2.10120106   -1.58814895
 C         -0.73414499   -0.46215299    0.10016300
 C         -1.39935601    0.79780197    0.62660700
 C         -2.92437100    0.63325202    0.56564099
 C         -3.65829396    1.91441202    0.94652098
 O         -3.58089399    2.18542695    2.34053302
 O         -3.30161309    0.33895099   -0.77981001
 O         -0.94567001    1.11854196    1.93248200
 O         -3.23685193   -1.98477602   -0.51504600
 H         -3.23317599   -0.17571200    1.23647201
 H         -3.17617798   -0.96131599   -2.29247189
 H         -1.12054300    1.63554502   -0.01801700
 C         -4.64324999   -2.21176004   -0.62027103
 H         -1.04318905   -2.42712092   -2.41772509
 H         -3.25983596    2.75171494    0.35970500
 H         -4.71530914    1.79471695    0.70179403
 H         -1.03222406    0.32916999    2.48492408
 H         -2.64356399    2.18085003    2.57924008
 H         -4.93918800   -2.29299498   -1.67185998
 H         -5.20749521   -1.40477002   -0.14523900
 H         -4.84860992   -3.15089989   -0.10814900
 H         -0.97189099   -0.07926500   -1.98098302
 O         -0.77560699   -1.46843004    1.04943705
 H          0.41071001   -0.17941800   -0.05759200
 H         -0.71436399   -2.32149196    0.59332103
 C          3.56556201    1.86504400    0.19883201
 C          2.05197406    1.57699704   -0.01045500
 C          4.34328413    0.56125897   -0.01409500
 C          3.94226503   -0.03412300   -1.36856401
 C          2.44945908   -0.46155101   -1.29556799
 N          1.90043402    0.11668700   -0.06163300
 H          3.73533893    2.24664402    1.20758998
 H          1.44550598    1.95450401    0.81169599
 H          5.41656780    0.75687999    0.00804700
 H          4.08052683    0.70375800   -2.16132402
 H          2.33167005   -1.54269004   -1.23493803
 H          3.88556695    2.62787199   -0.51272100
 H          1.68184400    1.98102295   -0.95226699
 C          3.96487188   -0.42859501    1.09329605
 H          4.55225420   -0.90723997   -1.60583997
 H          1.87100601   -0.08147200   -2.13709903
 C          2.41507792   -0.54196501    1.14425898
 H          4.32943487   -0.08539300    2.06278706
 H          4.40361595   -1.40757596    0.89068902
 H          1.99131095   -0.02985300    2.00727105
 H          2.07827306   -1.57826197    1.13850605
