48
wb97x-d4 ma-def2-tzvp(-f) cpcm(dmso) E: -1056.429404423545, G: -1056.0518765200002
 C         -2.93933511   -0.02733100   -1.32767797
 C         -1.40950203    0.06076100   -1.48408604
 O         -0.91425300   -0.70896798   -2.56290388
 C         -0.71678501   -0.44446999   -0.22857600
 C         -1.25162697    0.25053501    1.00952697
 C         -2.77785492    0.09700300    1.05420804
 C         -3.40814710    0.90155602    2.18658590
 O         -2.92516994    0.48594400    3.46629691
 O         -3.33316708    0.63924998   -0.14414300
 O         -0.60467899   -0.28752699    2.14611197
 O         -3.33260489   -1.36248195   -1.35344005
 H         -3.03653002   -0.96273297    1.15458596
 H         -3.42746902    0.53077900   -2.13616705
 H         -1.03352797    1.32257605    0.90516299
 C         -4.74969816   -1.52479899   -1.42719102
 H         -1.44503200   -0.53754199   -3.35035491
 H         -3.13631201    1.95382702    2.07637501
 H         -4.49655485    0.81351203    2.13168097
 H         -1.13862097   -0.03343100    2.91668296
 H         -3.37018204   -0.33500701    3.71003103
 H         -5.15242195   -0.97758901   -2.28652501
 H         -5.23310184   -1.17176497   -0.51240498
 H         -4.93739223   -2.59062409   -1.55112302
 H         -1.16625905    1.12138402   -1.60797405
 O         -0.71910799   -1.82179594   -0.10345900
 H          0.41509500   -0.10346100   -0.30921501
 H         -0.75336200   -2.19445610   -0.99808103
 C          3.95179391    0.66988701   -1.41675198
 C          2.45562196    0.26708400   -1.55013800
 C          4.37239504    0.49803701    0.04802100
 C          3.99458790   -0.91389000    0.51063401
 C          2.44387007   -1.03336704    0.51315498
 N          1.92669904    0.14712200   -0.18638299
 H          4.08761406    1.70719004   -1.72920704
 H          1.87240696    1.02032197   -2.07891107
 H          5.44780684    0.65158898    0.15093300
 H          4.42554092   -1.66025400   -0.15958200
 H          2.02980208   -1.02867901    1.52015603
 H          4.55168390    0.03576000   -2.07133102
 H          2.33104897   -0.69810098   -2.03953505
 C          3.60952711    1.51841998    0.89989197
 H          4.36757088   -1.10536397    1.51806998
 H          2.09781909   -1.92156506   -0.01464200
 C          2.09173989    1.38081098    0.59282899
 H          3.93062305    2.53497291    0.66710103
 H          3.79130292    1.33731794    1.96106005
 H          1.71635699    2.20666099   -0.01056700
 H          1.49778903    1.29289901    1.50127006
