48
wb97x-d4 ma-def2-tzvp(-f) cpcm(dmso) E: -1056.432895402505, G: -1056.05631937
 C         -2.93573809   -0.02899300   -1.21643305
 C         -1.40737903   -0.01569400   -1.38467598
 O         -1.01131403   -0.78425002   -2.50468993
 C         -0.70768499   -0.50796801   -0.11921200
 C         -1.24705803    0.15245301    1.13734603
 C         -2.77170801   -0.00872300    1.17347896
 C         -3.40984702    0.70690602    2.34999609
 O         -3.10502005    2.09706497    2.37756801
 O         -3.32271695    0.58087599   -0.00991400
 O         -0.62261200   -0.35605201    2.29965305
 O         -3.35501194   -1.35967505   -1.31727898
 H         -3.03204298   -1.07198703    1.22452104
 H         -3.40000391    0.57448101   -2.00399590
 H         -1.02089596    1.21982098    1.09567106
 C         -4.76859283   -1.49530804   -1.48164999
 H         -1.69469595   -1.45508397   -2.65017009
 H         -4.49288177    0.54695499    2.30991602
 H         -3.02856207    0.27925101    3.27753711
 H         -0.68876302   -1.32008505    2.28302598
 H         -3.47845292    2.49511600    1.58197606
 H         -5.29611015   -1.15080094   -0.58873099
 H         -4.96635103   -2.55468011   -1.63848603
 H         -5.10625410   -0.92294198   -2.35190606
 H         -1.10671103    1.02118802   -1.55302298
 O         -0.68516397   -1.88314605    0.03374200
 H          0.42270601   -0.14921400   -0.20621200
 H         -0.54369003   -2.28630400   -0.83582503
 C          3.86056709    0.82005399   -1.42207301
 C          2.37578607    0.36817601   -1.51077104
 C          4.35875607    0.57530397    0.00766600
 C          4.05746317   -0.87665701    0.39531600
 C          2.51448202   -1.05984104    0.46179399
 N          1.91736102    0.14061201   -0.13418400
 H          3.94310594    1.87917304   -1.67428505
 H          1.74073601    1.13038003   -1.96153200
 H          5.43148422    0.76530099    0.06958400
 H          4.48230791   -1.56105101   -0.34155601
 H          2.15156698   -1.13660300    1.48578894
 H          4.45065498    0.25159100   -2.14251304
 H          2.26132798   -0.56785101   -2.05632496
 C          3.60181499    1.50848699    0.95871103
 H          4.48692179   -1.11599505    1.36944699
 H          2.17881298   -1.92699206   -0.10627900
 C          2.07774901    1.32897902    0.71559000
 H          3.87300992    2.54976511    0.77770603
 H          3.84343696    1.26857603    1.99606299
 H          1.64190304    2.17549300    0.18622901
 H          1.53331900    1.15989494    1.64339101
