48
wb97x-d4 ma-def2-tzvp(-f) cpcm(dmso) E: -1056.433149293732, G: -1056.05623883
 C         -2.66738796   -1.46758497   -0.76466697
 C         -1.14318001   -1.35674095   -0.62230498
 O         -0.55543900   -2.60733795   -0.33942601
 C         -0.76221299   -0.29210499    0.39912301
 C         -1.51207697    1.02467406    0.19377600
 C         -3.01160192    0.75495499    0.05070500
 C         -3.79446793    1.99905205   -0.33078900
 O         -3.35897994    2.56055403   -1.56446397
 O         -3.23145509   -0.19455400   -0.99427599
 O         -1.32743502    1.85030699    1.33662903
 O         -3.17170310   -2.08760691    0.37928799
 H         -3.40000200    0.37298101    1.00128102
 H         -2.91348410   -2.05344391   -1.65708601
 H         -1.14870906    1.51250994   -0.71380699
 C         -4.54353905   -2.46596789    0.25787699
 H         -0.97870702   -2.95028710    0.45909899
 H         -4.85793495    1.74041104   -0.37691200
 H         -3.65325999    2.76216006    0.43495601
 H         -0.56822801    2.42672300    1.19062304
 H         -3.51820111    1.90617096   -2.25549293
 H         -5.18792915   -1.58440995    0.20396200
 H         -4.79065704   -3.04399204    1.14742196
 H         -4.69229698   -3.08204603   -0.63550699
 H         -0.76089400   -1.03342104   -1.59345603
 O         -0.85135102   -0.76399601    1.69635701
 H          0.37859300   -0.05853200    0.19054900
 H         -0.90266001    0.01430200    2.27584505
 C          3.89581704    0.48129600    1.43789303
 C          2.38576007    0.10991700    1.46919096
 C          4.37705183    0.43257299   -0.01735300
 C          3.68105197    1.54898798   -0.80374902
 C          2.14882994    1.43660998   -0.56611598
 N          1.91367900    0.14019901    0.08148600
 H          4.44991684   -0.22705600    2.05562091
 H          2.21626592   -0.89461702    1.85463905
 H          5.45969296    0.56213403   -0.05955900
 H          4.02191782    2.53049302   -0.47059700
 H          1.58554804    1.46175599   -1.49848402
 H          4.04135799    1.48123801    1.85130894
 H          1.79984105    0.82389700    2.04789805
 C          3.98160100   -0.91830701   -0.62394500
 H          3.90042210    1.45499098   -1.86907804
 H          1.78016102    2.21417999    0.10247100
 C          2.43065810   -0.98388499   -0.70939797
 H          4.35481310   -1.73587203   -0.00385400
 H          4.39955187   -1.03223097   -1.62544000
 H          2.03212404   -1.90652394   -0.29211700
 H          2.06913209   -0.86255598   -1.73012495
