48
energy: -1054.035793097153
 C          2.60894704   -1.12066603    0.72448498
 C          1.12812698   -0.94665200    1.15638602
 O          0.35797599   -2.09828305    0.88151801
 C          0.58419001    0.35981700    0.54143602
 O          0.53878701    1.35490406    1.48895705
 C          1.23871899    0.77420098   -0.77068299
 C          2.77029490    0.90354800   -0.56045198
 C          3.22608399    2.33528090   -0.35627499
 O          2.53051805    3.00752401    0.70823097
 O          3.23413610    0.13217400    0.56572002
 O          0.90438801   -0.12504900   -1.81881595
 O          2.61145401   -1.88088799   -0.46132001
 H          3.25242710    0.53768301   -1.47191703
 H          3.17659593   -1.63641500    1.50135803
 H         -0.58385402    0.08745700    0.24377500
 H          0.83880502    1.74265003   -1.07436204
 C          3.89863706   -2.39774489   -0.83347899
 H          0.72167701   -2.52198100    0.08982800
 H          4.30042601    2.35443211   -0.16875800
 H          3.02176690    2.89372802   -1.27006602
 H          1.44505405   -0.92510098   -1.70620894
 H          1.02756596    2.15160704    1.17335403
 H          3.02542806    2.87291288    1.52761805
 H          3.73912311   -3.01908302   -1.71105897
 H          4.30660009   -2.99968195   -0.01868800
 H          4.58628988   -1.58598602   -1.07430005
 H          1.11335194   -0.79750299    2.23523307
 C         -3.93837500    1.32776105   -0.67521298
 C         -2.38918090    1.30527997   -0.53225499
 C         -4.48146582   -0.06513500   -0.33137000
 C         -4.14433479   -0.38265899    1.13097501
 C         -2.60429406   -0.26907200    1.32409096
 N         -1.99519897   -0.01084000    0.00523200
 H         -4.20412493    1.60200799   -1.69624197
 H         -1.89097500    1.43137503   -1.49122405
 H         -5.56165600   -0.08983600   -0.47816399
 H         -4.64864206    0.31492499    1.79983997
 H         -2.17177105   -1.18702698    1.71458602
 H         -4.36298800    2.07553291   -0.00482400
 H         -2.03188205    2.06821895    0.15707800
 C         -3.80488110   -1.10237503   -1.23721302
 H         -4.47479105   -1.39026701    1.38483405
 H         -2.33561110    0.55741900    1.97892904
 C         -2.27452898   -1.10112405   -0.94995898
 H         -3.98558092   -0.86198199   -2.28537607
 H         -4.20854807   -2.09681702   -1.04559898
 H         -1.68477798   -0.91880101   -1.84421396
 H         -1.94243503   -2.02789211   -0.49074200
