48
energy: -1054.03588379916
 C          2.59966493   -0.92512900    1.00796199
 C          1.12089705   -0.63145602    1.37926698
 O          0.34093699   -1.80821502    1.41515601
 C          0.58894801    0.47495300    0.44434199
 O          0.56126899    1.68292797    1.09915400
 C          1.24272895    0.52310401   -0.93146503
 C          2.77570701    0.68976903   -0.76296198
 C          3.24282908    2.12112403   -0.94269401
 O          2.54887199    3.05624199   -0.09760200
 O          3.23531795    0.23652600    0.52618402
 O          0.89668202   -0.61718303   -1.70532501
 O          2.59281611   -1.96986794    0.06324600
 H          3.25322390    0.09411700   -1.54680896
 H          3.16458011   -1.22387195    1.89303899
 H         -0.58444101    0.15120800    0.22543301
 H          0.85105699    1.38105500   -1.47963905
 C          3.87406898   -2.57920909   -0.15954900
 H          0.69984502   -2.42739391    0.76219201
 H          4.31647778    2.18194604   -0.76106203
 H          3.04625511    2.41856599   -1.97310305
 H          1.43143797   -1.36428905   -1.38764703
 H          1.06021595    2.36266708    0.58582401
 H          3.05314994    3.15997910    0.72041202
 H          3.70703101   -3.40510988   -0.84629101
 H          4.27622986   -2.95350790    0.78425097
 H          4.57028580   -1.86512601   -0.60135800
 H          1.10991895   -0.20519900    2.38151312
 C         -4.16406679    0.06193800    1.15002596
 C         -2.62234998    0.18233100    1.32618594
 C         -4.47874117   -0.08371900   -0.34421301
 C         -3.82172489   -1.36585295   -0.87156898
 C         -2.29231095   -1.30378902   -0.58668798
 N         -1.99462497    0.01746400    0.00114300
 H         -4.64892387    0.94925702    1.55744505
 H         -2.33167601    1.15793002    1.71068799
 H         -5.55784607   -0.12864400   -0.49424401
 H         -4.24755621   -2.24136996   -0.38075200
 H         -1.69869399   -1.40458596   -1.49128497
 H         -4.53113699   -0.80470401    1.70047998
 H         -2.22333694   -0.59023398    1.97896695
 C         -3.89629292    1.12047398   -1.09506202
 H         -3.99463701   -1.46415806   -1.94367898
 H         -1.97589195   -2.05745006    0.12871400
 C         -2.35062599    1.11756599   -0.91553599
 H         -4.31418800    2.04897499   -0.70501101
 H         -4.13859701    1.06261694   -2.15629506
 H         -1.98838305    2.04683304   -0.47939101
 H         -1.83335197    0.94144797   -1.85612500
