48
energy: -1054.033063876646
 C          2.54564190   -1.11787903    1.00882304
 C          1.01831400   -1.14630699    0.73205602
 O          0.70958799   -1.64960206   -0.55674899
 C          0.46701199    0.26408201    0.81459802
 O          0.35183501    0.61672002    2.14244509
 C          1.17761803    1.28907800   -0.07764200
 C          2.56014395    0.74223500   -0.48568699
 C          3.50127101    1.85017502   -0.92204303
 O          2.89129710    2.51314497   -2.03900003
 O          3.15638208    0.10635000    0.64319497
 O          0.37921801    1.57525206   -1.21595705
 O          3.08466792   -2.20889902    0.31757000
 H          2.42598104    0.03261600   -1.30531096
 H          2.73052096   -1.21618700    2.08078909
 H         -0.68238300    0.17920201    0.34560499
 H          1.32816899    2.19844508    0.51765400
 C          4.43363190   -2.52583504    0.68007898
 H          1.34289396   -2.35951304   -0.74117303
 H          3.65428495    2.54756403   -0.09405400
 H          4.46535778    1.41987503   -1.20670605
 H          0.93084800    2.12960291   -1.79405797
 H          0.24901100    1.57697105    2.22934508
 H          3.28460693    3.38951898   -2.13137889
 H          4.50267220   -2.71830106    1.75435305
 H          5.10906506   -1.71339798    0.40852401
 H          4.70039797   -3.42412996    0.12812200
 H          0.55534601   -1.76175499    1.50869405
 C         -4.18788004    1.31800103   -0.02832600
 C         -2.66095400    1.39962006    0.26460701
 C         -4.55531406   -0.14117099   -0.32471001
 C         -4.13826990   -1.01058304    0.86794400
 C         -2.59301090   -0.92079997    1.03277004
 N         -2.08229089    0.05792300    0.05357200
 H         -4.43241692    1.95085800   -0.88191700
 H         -2.15014505    2.08686709   -0.40446299
 H         -5.62950802   -0.22824401   -0.49075300
 H         -4.62821913   -0.66567099    1.77880299
 H         -2.10686398   -1.87269700    0.83065999
 H         -4.74510622    1.68543303    0.83346200
 H         -2.45987701    1.68725705    1.29476702
 C         -3.79264402   -0.60534501   -1.57183003
 H         -4.42492390   -2.04929399    0.70343399
 H         -2.30781293   -0.57877100    2.02574110
 C         -2.26625991   -0.40615901   -1.33571506
 H         -4.10320711   -0.02977400   -2.44405603
 H         -4.00109911   -1.65695298   -1.77105296
 H         -1.84199703    0.35016701   -1.98942602
 H         -1.70606101   -1.32936597   -1.45277798
