48
energy: -1054.032481209116
 C          2.60303593   -1.32401896    0.32657200
 C          1.18181002   -1.32403898    0.92916000
 O          0.37941101   -2.34833002    0.37726900
 C          0.56243002    0.08657700    0.82024997
 O          0.45557699    0.75997901    2.02066112
 C          1.19573498    1.00757694   -0.21427099
 C          2.72780704    1.05891597   -0.00394800
 C          3.16541910    2.21982908    0.87243903
 O          2.88161111    3.42195702    0.15763199
 O          3.26269102   -0.12209400    0.62473202
 O          0.83195502    0.62393701   -1.53279996
 O          2.47436190   -1.55696297   -1.05816901
 H          3.17970204    1.17364800   -0.99378699
 H          3.20710993   -2.11257100    0.78003901
 H         -0.58175802   -0.10274200    0.39217499
 H          0.80415100    2.01395607   -0.07337600
 C          3.70753598   -1.87960696   -1.72075796
 H          0.62987900   -2.45413899   -0.55323499
 H          2.63093400    2.19029999    1.82498002
 H          4.23749018    2.12205005    1.06870306
 H          1.33112097   -0.18211700   -1.75085497
 H          0.28541401    0.14019001    2.74698305
 H          2.97702408    4.16506195    0.76577801
 H          4.40139914   -1.03946304   -1.67343104
 H          3.45425510   -2.09221792   -2.75622201
 H          4.15815306   -2.76011395   -1.25779104
 H          1.28871095   -1.54672003    1.99243498
 C         -3.69438696   -0.74623001   -1.59505403
 C         -2.18418002   -0.84034002   -1.22596800
 C         -4.44188881   -0.04029800   -0.45674199
 C         -3.89597106    1.38561904   -0.30908999
 C         -2.35893703    1.30795395   -0.07521700
 N         -1.98380995   -0.11404500    0.04348900
 H         -4.09307384   -1.74924397   -1.74839997
 H         -1.86315095   -1.86672699   -1.07112205
 H         -5.50984001   -0.00880800   -0.67488700
 H         -4.09630299    1.96809494   -1.20840299
 H         -2.06104803    1.81053495    0.84303999
 H         -3.81312490   -0.19088100   -2.52593803
 H         -1.54720402   -0.37723699   -1.97393405
 C         -4.19698715   -0.80356097    0.85072398
 H         -4.37404919    1.88904500    0.53157800
 H         -1.79929805    1.72556996   -0.90877801
 C         -2.67321801   -0.77281803    1.16909099
 H         -4.53195906   -1.83666897    0.75444400
 H         -4.75011301   -0.34512299    1.67055297
 H         -2.25591493   -1.77102602    1.27349401
 H         -2.45846796   -0.20004000    2.06937003
