48
energy: -1054.03320342904
 C          2.53641009   -1.06230605    0.99663699
 C          1.12317896   -0.69516098    1.49587405
 O          0.27007601   -1.82148099    1.51897800
 C          0.56861597    0.49500600    0.68249702
 O          0.50766701    1.68598902    1.37860894
 C          1.23525202    0.74437302   -0.66445702
 C          2.76883006    0.82719398   -0.48146999
 C          3.26991606    2.25537395   -0.29343900
 O          3.00435090    3.05892205   -1.43853498
 O          3.25389290    0.09609900    0.66255403
 O          0.84270000   -0.22787599   -1.62322903
 O          2.38305998   -1.95135403   -0.08748100
 H          3.22003198    0.40900800   -1.38751900
 H          3.10622907   -1.54477596    1.79367006
 H         -0.58306903    0.16016400    0.38977301
 H          0.89158797    1.70287704   -1.05108500
 C          3.58914709   -2.63269305   -0.46870399
 H          0.51366502   -2.38983798    0.77246898
 H          2.75701690    2.72357106    0.54605401
 H          4.33962202    2.22189093   -0.06912500
 H          1.30605900   -1.05572498   -1.40821505
 H          0.33112001    1.52584696    2.31860209
 H          3.57770610    2.76470208   -2.15874600
 H          3.31639194   -3.31970906   -1.26569498
 H          3.98697305   -3.18855405    0.38303199
 H          4.33427906   -1.92285097   -0.82987398
 H          1.22852302   -0.35860401    2.52876091
 C         -4.22775888   -0.13251799    1.03190804
 C         -2.71374393    0.07333200    1.33195806
 C         -4.42557621   -0.18145300   -0.48868099
 C         -3.67672610   -1.39592099   -1.05227005
 C         -2.18769002   -1.32061505   -0.60447598
 N         -1.98082900   -0.01614800    0.05507400
 H         -4.79909515    0.68760699    1.46678901
 H         -2.51272893    1.05369604    1.75972104
 H         -5.48773718   -0.25453401   -0.72411501
 H         -4.11729097   -2.32330108   -0.68563902
 H         -1.49915195   -1.38215995   -1.44246602
 H         -4.57138014   -1.06141901    1.48809803
 H         -2.32038999   -0.69269401    1.99581897
 C         -3.83714890    1.09259605   -1.10750604
 H         -3.73766398   -1.40270102   -2.14118290
 H         -1.94088399   -2.09364104    0.11737300
 C         -2.30362296    1.10864103   -0.84384000
 H         -4.30022621    1.97642803   -0.66780102
 H         -4.01884317    1.11729300   -2.18203592
 H         -1.98456502    2.02904701   -0.35840401
 H         -1.73035097    0.97077399   -1.75736904
