48
energy: -1054.026290352521
 C          2.69034791   -0.69633102    0.75863600
 C          1.16110003   -0.97543299    0.63327402
 O          0.83328098   -1.94036901   -0.33912000
 C          0.53802699    0.39412001    0.35998300
 O          0.51338500    1.17593300    1.48742604
 C          1.09233701    1.05093300   -0.89911097
 C          2.63888001    1.07077599   -0.90657800
 C          3.24766111    2.29945993   -0.24783801
 O          2.74122906    2.50313902    1.08215296
 O          3.19244409   -0.17184600   -0.46552101
 O          0.59339100    0.26088500   -1.98469603
 O          3.45487905   -1.79296100    1.12647605
 H          2.94539499    1.13823998   -1.95337796
 H          2.82312799    0.02449800    1.56868100
 H         -0.66365302    0.14160700    0.09385700
 H          0.72109300    2.07686496   -0.97493702
 C          3.57686210   -2.89303803    0.20671000
 H          0.90034300   -1.52257800   -1.21424794
 H          4.33253002    2.17698503   -0.21611200
 H          3.00726795    3.16299796   -0.87333202
 H          0.93389100    0.61464697   -2.81763101
 H          1.14383996    1.93019700    1.39002299
 H          3.00649691    3.38048911    1.38779402
 H          2.69594097   -3.53185701    0.24337099
 H          4.45181990   -3.45050812    0.53642201
 H          3.73314190   -2.54160190   -0.81183797
 H          0.81735802   -1.34620297    1.59941304
 C         -4.10166693    1.32496703   -0.48873100
 C         -2.54762912    1.36007798   -0.44658399
 C         -4.57062817   -0.10012200   -0.16828200
 C         -4.10170603   -0.47318900    1.24371099
 C         -2.55323505   -0.34468299    1.30537105
 N         -2.06173110    0.02591500   -0.03831700
 H         -4.44752789    1.62625301   -1.47778499
 H         -2.11721897    1.58079398   -1.42097199
 H         -5.65813494   -0.15489399   -0.22536600
 H         -4.55430079    0.18842600    1.98255503
 H         -2.07606506   -1.28210795    1.58417594
 H         -4.50825691    2.02898788    0.23783000
 H         -2.17590690    2.08342910    0.27676401
 C         -3.94297194   -1.07142305   -1.17583394
 H         -4.39755106   -1.49510396    1.48275602
 H         -2.23548508    0.43238199    1.99721503
 C         -2.39425611   -1.00681102   -1.04312694
 H         -4.23897886   -0.80483902   -2.19107103
 H         -4.28385401   -2.08933091   -0.98454702
 H         -1.91243899   -0.72643298   -1.97584295
 H         -1.97106504   -1.94638896   -0.69754797
