48
energy: -1054.033184706442
 C          2.57717204   -1.38146198    0.42093199
 C          1.04065204   -1.32218802    0.20622399
 O          0.68628901   -1.23746002   -1.16410697
 C          0.47659200   -0.09355700    0.89598101
 O          0.37754399   -0.35100099    2.24670506
 C          1.15923500    1.23042297    0.52838802
 C          2.52437401    0.93864000   -0.12376900
 C          3.44720411    2.14266109   -0.07848900
 O          2.79534793    3.20809388   -0.78443903
 O          3.16377091   -0.10626100    0.60681200
 O          0.32116401    1.98487699   -0.33371899
 O          3.09849811   -2.04884505   -0.69353998
 H          2.36029696    0.64290100   -1.16250896
 H          2.80405807   -1.93198597    1.33656502
 H         -0.67469400    0.00443600    0.43898901
 H          1.33427596    1.78012896    1.46200705
 C          4.46049023   -2.46628594   -0.54498601
 H          1.31919503   -1.78362596   -1.65447605
 H          3.63170004    2.42331791    0.96196097
 H          4.39965391    1.89037097   -0.55265403
 H          0.85857302    2.73939300   -0.63088399
 H          0.27834100    0.47526100    2.74416590
 H          3.19017005    4.04608202   -0.51377100
 H          4.71513510   -3.02013397   -1.44566202
 H          4.56563091   -3.11462307    0.32931900
 H          5.12148905   -1.60427594   -0.44452101
 H          0.61028600   -2.21907592    0.66084301
 C         -3.74602103    0.15205900   -1.69045305
 C         -2.23543906    0.29914701   -1.34314096
 C         -4.53045797   -0.10701000   -0.39812601
 C         -4.23308706    1.01972902    0.59955502
 C         -2.71738410    0.98577398    0.95411801
 N         -2.06998706   -0.01956600    0.08933900
 H         -3.88730001   -0.67300397   -2.38953400
 H         -1.61235797   -0.38784000   -1.90843403
 H         -5.59928322   -0.14420100   -0.61076498
 H         -4.48701286    1.98622704    0.16328301
 H         -2.54788089    0.68985099    1.98795104
 H         -4.09518623    1.06506503   -2.17321301
 H         -1.87421203    1.31159902   -1.49476397
 C         -4.06927490   -1.43977797    0.20443000
 H         -4.82273388    0.89429498    1.50763595
 H         -2.23133707    1.94083798    0.77195698
 C         -2.52667809   -1.38799000    0.40228200
 H         -4.32047415   -2.26804590   -0.45826501
 H         -4.56159782   -1.61373794    1.16163802
 H         -2.00599408   -2.06844306   -0.26764899
 H         -2.24097800   -1.61013901    1.42866099
