48
energy: -1054.033242149318
 C          2.63592505   -0.97699797    0.27781400
 C          1.10554802   -1.12920904    0.18478400
 O          0.70929599   -1.60590506   -1.09484100
 C          0.50505900    0.24858800    0.40402600
 O          0.49432600    0.57816797    1.73794198
 C          1.04910803    1.29817402   -0.56334603
 C          2.59610796    1.30291605   -0.58156598
 C          3.25128007    2.16785908    0.48250100
 O          2.79400301    1.83253801    1.80394804
 O          3.11679912   -0.02940100   -0.66995901
 O          0.53827101    1.06905305   -1.87289202
 O          3.18129396   -2.21090102   -0.04437700
 H          2.87709403    1.75933099   -1.53237796
 H          2.91418791   -0.67385203    1.29372895
 H         -0.70163602    0.12239300    0.08670300
 H          0.69686401    2.28555393   -0.26129100
 C          4.58250380   -2.32767105    0.23911400
 H          1.29467905   -2.33985305   -1.33354604
 H          4.33409405    2.03650498    0.42311200
 H          3.00918889    3.21013093    0.25871399
 H          0.67704701    0.12876500   -2.07853293
 H          1.16695094    1.28175998    1.91035497
 H          3.10597301    2.50543809    2.42304492
 H          4.85021877   -3.36447310    0.04931500
 H          4.77752781   -2.08207202    1.28664196
 H          5.16660786   -1.67146099   -0.40718299
 H          0.78023702   -1.80621004    0.97922701
 C         -4.03777790   -0.41905800   -1.44917703
 C         -2.48318791   -0.37985599   -1.38014197
 C         -4.60717916   -0.09152000   -0.06269100
 C         -4.16294622    1.32027698    0.34048501
 C         -2.60846496    1.38186204    0.31371200
 N         -2.10073996    0.03481000   -0.01428000
 H         -4.36283112   -1.40906703   -1.76972795
 H         -2.03708792   -1.35419297   -1.56187296
 H         -5.69594908   -0.14603800   -0.08495600
 H         -4.56815815    2.05995989   -0.35019401
 H         -2.19342995    1.66680396    1.27837002
 H         -4.39189196    0.30499700   -2.18348193
 H         -2.05764008    0.33855399   -2.07511306
 C         -4.05445004   -1.09734404    0.95466101
 H         -4.52534580    1.55967295    1.34043396
 H         -2.23987603    2.06450796   -0.44880000
 C         -2.50477409   -0.96638298    0.99428201
 H         -4.33039999   -2.11321902    0.67115700
 H         -4.46279287   -0.90118498    1.94604695
 H         -2.01009011   -1.90287602    0.74522400
 H         -2.14674711   -0.62180901    1.96216500
