48
energy: -1054.032430128974
 C          2.69007206   -0.81374300    0.81101501
 C          1.15413296   -0.92511499    0.87737399
 O          0.68555498   -2.03858590    0.12543200
 C          0.55803901    0.34051600    0.28263000
 O          0.67359900    1.38049603    1.17803204
 C          1.07586300    0.63341701   -1.12180197
 C          2.61731195    0.70651299   -1.07640803
 C          3.17928100    1.96265996   -0.38220200
 O          2.19234300    3.01015592   -0.42238200
 O          3.14772010   -0.49269000   -0.50240397
 O          0.63860703   -0.34408101   -2.05100393
 O          3.19903111   -2.05883288    1.14438403
 H          2.95191598    0.68268502   -2.11285305
 H          3.02086806   -0.05361700    1.52671599
 H         -0.64638299    0.11097200    0.13022099
 H          0.68788099    1.58859599   -1.46996903
 C          4.60375881   -2.06507206    1.43544102
 H          1.24847198   -2.79656506    0.34312999
 H          3.43821692    1.74287903    0.65349799
 H          4.08440495    2.28344798   -0.89948303
 H          0.76115900   -1.21815503   -1.64228904
 H          0.92341900    2.20432210    0.70332599
 H          2.58844399    3.81429696   -0.06068500
 H          4.82872677   -1.34467900    2.22653103
 H          5.18631220   -1.82810795    0.54437000
 H          4.84337378   -3.06991696    1.77516103
 H          0.86760098   -1.01236999    1.92916501
 C         -4.13572121    0.30285099    1.35161197
 C         -2.58060288    0.24406600    1.40076494
 C         -4.58930779    0.10823500   -0.10078800
 C         -4.05999279   -1.23670304   -0.61511898
 C         -2.50373101   -1.22333705   -0.55460101
 N         -2.08434391    0.06838700    0.02303100
 H         -4.48129702    1.26470804    1.73109603
 H         -2.14809990    1.16140902    1.79491699
 H         -5.67827892    0.12466900   -0.15465701
 H         -4.44414091   -2.05304909   -0.00306500
 H         -2.05369210   -1.30354595   -1.54074299
 H         -4.55030823   -0.47898000    1.98816299
 H         -2.22280312   -0.59794497    1.98979199
 C         -4.00694799    1.23748696   -0.95990902
 H         -4.38336611   -1.40467703   -1.64259398
 H         -2.10979509   -2.01384211    0.07844100
 C         -2.45466590    1.20337605   -0.84309697
 H         -4.37902308    2.20460010   -0.62132001
 H         -4.29851103    1.11084497   -2.00276899
 H         -2.05988789    2.11024809   -0.38845301
 H         -1.97740996    1.05381894   -1.80898798
