48
energy: -1054.035766604133
 C          2.58775592   -0.92988300    0.99513698
 C          1.10898101   -0.62797600    1.35744202
 O          0.32226899   -1.80069399    1.38070297
 C          0.58735001    0.48679301    0.42596400
 O          0.54906499    1.69002604    1.08932602
 C          1.25779295    0.54625201   -0.94129801
 C          2.78940201    0.70733899   -0.75456297
 C          3.26578403    2.13965893   -0.90111703
 O          2.58892393    3.05721498   -0.02469300
 O          3.23730707    0.23066400    0.53026998
 O          0.92277998   -0.58676201   -1.73016202
 O          2.57960200   -1.96666002    0.04100400
 H          3.27217007    0.12412400   -1.54464602
 H          3.14260411   -1.24186599    1.88181102
 H         -0.58748102    0.16342500    0.19925199
 H          0.87175602    1.40997303   -1.48481405
 C          3.85354495   -2.59575200   -0.16857800
 H          0.68539298   -2.41881800    0.72900403
 H          4.34184599    2.18653297   -0.72867501
 H          3.06119490    2.46764708   -1.92035306
 H          1.45251906   -1.33644402   -1.40963304
 H          1.05999100    2.37338305    0.59364200
 H          3.07156110    3.08829093    0.81260401
 H          4.23222685   -2.99080300    0.77648401
 H          4.56954002   -1.88776803   -0.58790201
 H          3.68358302   -3.40855098   -0.87011099
 H          1.09412003   -0.20798001    2.36234903
 C         -4.14355278   -0.17733800    1.16795599
 C         -2.60415101   -0.02467600    1.33753896
 C         -4.48360586   -0.11139400   -0.32645601
 C         -3.79818797   -1.27876103   -1.04854405
 C         -2.26765704   -1.21383595   -0.77241200
 N         -1.99719298    0.01970800   -0.00722300
 H         -4.65232515    0.61953998    1.71064794
 H         -2.33954000    0.89938402    1.84792197
 H         -5.56356812   -0.16907600   -0.46564400
 H         -4.19143486   -2.23113704   -0.69226003
 H         -1.68259299   -1.17057300   -1.68689895
 H         -4.46797991   -1.13004696    1.58759499
 H         -2.16385007   -0.86396098    1.86933196
 C         -3.95263696    1.20927203   -0.89869100
 H         -3.98431110   -1.21923304   -2.12139893
 H         -1.92280602   -2.05121303   -0.17202400
 C         -2.40357208    1.22680199   -0.75160402
 H         -4.38580322    2.05493212   -0.36391401
 H         -4.21908522    1.30502605   -1.95142198
 H         -2.05673099    2.09470701   -0.19376400
 H         -1.90223205    1.20150900   -1.71697104
