27
wb97x-d4 ma-def2-tzvp cpcm(acetone) E: -727.044339407819, G: -726.85276262, DLPNO-CCSD(T1) aug-cc-pvtz cpcm(acetone) E: -725.508816036682
 C         -1.15713799   -0.15818600    0.10764000
 C         -0.98449200    1.30023801   -0.32494301
 O         -0.28677100   -1.00546098   -0.65357500
 C         -2.56247211   -0.68558800   -0.11860200
 H         -0.92921299   -0.25196299    1.17702699
 C          1.08299303   -0.69784898   -0.54691303
 C          1.34911704    0.73365402   -1.01872599
 H          1.59683394   -1.42435205   -1.18543601
 O          1.54943395   -0.80304301    0.77423400
 C          0.48267800    1.72685099   -0.24652000
 H          1.05771303    0.77976203   -2.07090592
 O          2.72466302    1.05514598   -0.96635503
 O          0.89705002    1.87235606    1.11150706
 H          0.58842301    2.71844101   -0.69347501
 O         -1.79295099    2.15653300    0.46465400
 H         -1.32237399    1.40105700   -1.35916102
 H         -2.61525607   -1.71654999    0.25008500
 O         -2.95847011   -0.62118602   -1.48273504
 H         -3.26857209   -0.07711100    0.44750801
 H         -2.34703493   -1.16597903   -1.99180603
 H         -1.31645596    2.30630493    1.29273903
 H          1.05803204    0.98903900    1.47624099
 C          1.53676295   -2.13129997    1.29333794
 H          0.51292199   -2.49671793    1.40862203
 H          2.02416706   -2.09466600    2.26667404
 H          2.09134197   -2.80108500    0.62774998
 H          2.98906302    1.09165299   -0.03886800
