27
wb97x-d4 ma-def2-tzvp cpcm(acetone) E: -727.041978783409, G: -726.85004164, DLPNO-CCSD(T1) aug-cc-pvtz cpcm(acetone) E: -725.506656812103
 C         -1.07676899   -0.22883500   -0.08675600
 C         -1.02799904    1.30015600   -0.05010500
 O         -0.01931900   -0.74351197   -0.90633303
 C         -2.36367702   -0.74694502   -0.69706798
 H         -0.97730398   -0.62513399    0.93156099
 C          1.27456295   -0.38242599   -0.49314201
 C          1.45365703    1.13367701   -0.46797499
 H          1.94731498   -0.83814198   -1.22751796
 O          1.56866896   -0.84685898    0.80068099
 C          0.35767299    1.79255700    0.37597600
 H          2.43183494    1.36024106   -0.03105900
 O          1.38440096    1.57027495   -1.81670296
 O          0.55709398    1.56577802    1.76831102
 H          0.40323201    2.87633204    0.23502700
 O         -2.01890111    1.81571805    0.82462502
 H         -1.24817395    1.68507397   -1.04910696
 H         -3.21316791   -0.37193501   -0.12581900
 O         -2.43288994   -2.16738200   -0.66321301
 H         -2.44357395   -0.38001299   -1.72841406
 H         -1.66430604   -2.50645304   -1.13712299
 H         -1.66086495    1.74312496    1.72033799
 H          0.84776300    0.64848298    1.88363397
 C          1.56399596   -2.26864791    0.91665000
 H          2.24287701   -2.70877790    0.17846800
 H          0.55841702   -2.67192602    0.77243400
 H          1.91245198   -2.50280905    1.92165196
 H          1.64300203    2.49837899   -1.84902203
