27
wb97x-d4 ma-def2-tzvp cpcm(acetone) E: -727.043686182181, G: -726.85306987, DLPNO-CCSD(T1) aug-cc-pvtz cpcm(acetone) E: -725.507562675246
 C         -1.18315899    0.13206001   -0.07661100
 C         -0.91277403   -1.36105597    0.06859800
 O         -0.34798899    0.86294001    0.82594901
 C         -2.61013794    0.50287598    0.27582899
 H         -0.97189999    0.44044200   -1.10720396
 C          1.03601599    0.69714200    0.61497599
 C          1.42229199   -0.77600098    0.74650300
 H          1.51854205    1.29990602    1.39278603
 O          1.44564998    1.12398100   -0.65280902
 C          0.56210798   -1.63695705   -0.17350100
 H          1.24468601   -1.08079100    1.78092504
 O          2.80376697   -0.97627401    0.49801901
 O          0.78107500   -3.02212191    0.06318700
 H          0.79581702   -1.39569795   -1.21861804
 O         -1.72659695   -2.04891992   -0.86961502
 H         -1.16584802   -1.67311203    1.09187198
 H         -3.29793000   -0.03989800   -0.37283000
 O         -2.85549212    1.88903797    0.07698400
 H         -2.80973411    0.21747300    1.31666398
 H         -2.22527409    2.37658501    0.62036198
 H         -1.47386801   -2.97961497   -0.84615397
 H          1.70227599   -3.21777606   -0.14390200
 C          1.32934201    2.53022599   -0.84912902
 H          1.78057396    2.75394201   -1.81509101
 H          1.86175203    3.07176995   -0.05929100
 H          0.27994400    2.83819008   -0.85636699
 H          3.01686311   -0.52835602   -0.33153400
