27
wb97x-d4 ma-def2-tzvp cpcm(acetone) E: -727.04363795174, G: -726.84990352, DLPNO-CCSD(T1) aug-cc-pvtz cpcm(acetone) E: -725.508654052429
 C         -0.81381398   -0.41379401    0.51107103
 C         -0.87347400    1.08214998    0.81304199
 O         -0.24779300   -0.65573001   -0.78011799
 C         -2.16297102   -1.11165202    0.53894103
 H         -0.19610900   -0.88435501    1.28594100
 C          1.05976498   -0.15231700   -0.94201601
 C          1.12053800    1.36000896   -0.70199299
 H          1.32881105   -0.38974601   -1.97660899
 O          1.96737897   -0.74797899   -0.04750400
 C          0.51827401    1.71226299    0.66703200
 H          2.16883993    1.66694105   -0.72109097
 O          0.45636901    2.04170704   -1.75179398
 O          1.36967695    1.31898201    1.73203397
 H          0.40920600    2.79822993    0.72712803
 O         -1.73856604    1.78598106   -0.08132100
 H         -1.21021700    1.20984399    1.84888196
 H         -2.01742911   -2.18289804    0.37133300
 O         -3.08499599   -0.58299202   -0.41894701
 H         -2.61718798   -0.97078598    1.52184498
 H         -2.80235505   -0.86665398   -1.29667103
 H         -2.47390103    1.19112504   -0.30600101
 H          1.75382400    0.45869401    1.50798905
 C          2.10797000   -2.15710807   -0.21405201
 H          2.92028499   -2.47204900    0.43986699
 H          2.35903907   -2.39141798   -1.25406301
 H          1.18952799   -2.68085289    0.06405800
 H         -0.49069101    2.03440690   -1.53698301
