27
wb97x-d4 ma-def2-tzvp cpcm(acetone) E: -727.045315941107, G: -726.85244512, DLPNO-CCSD(T1) aug-cc-pvtz cpcm(acetone) E: -725.509787930918
 C         -0.78901303    0.60616702   -0.42671201
 C         -1.09287000   -0.87799501   -0.63861001
 O          0.04928900    0.79261601    0.71448499
 C         -2.02357888    1.46846294   -0.22780000
 H         -0.28117299    0.97083002   -1.32830799
 C          1.30257702    0.14410099    0.61120498
 C          1.14100003   -1.36422300    0.40339300
 H          1.79794097    0.34035799    1.56870997
 O          2.06568503    0.63603902   -0.45268700
 C          0.22457500   -1.63545001   -0.79315901
 H          2.12770104   -1.79070497    0.21111199
 O          0.65393603   -1.97740400    1.58793199
 O          0.02100800   -3.02451110   -0.98777401
 H          0.71775800   -1.26485598   -1.69454896
 O         -1.80376303   -1.45119095    0.46234801
 H         -1.68150699   -0.98524803   -1.55797803
 H         -1.72166002    2.51650405   -0.14047299
 O         -2.79939198    1.08179402    0.91008103
 H         -2.67285395    1.36316895   -1.09924197
 H         -2.32218003    1.35216105    1.70384300
 H         -2.42586088   -0.77905601    0.78670502
 H         -0.28933999   -3.39694691   -0.15305100
 C          2.44346905    2.00073791   -0.29816100
 H          3.12510300    2.23498511   -1.11541998
 H          2.95387292    2.15089893    0.66006798
 H          1.57270801    2.66060495   -0.34961700
 H         -0.29343000   -1.77184403    1.64365900
