33
wb97x-d4 ma-def2-tzvp(-f) cpcm(dmso) E: -955.171946640309, G: -954.95153633
 C         -2.42564297   -0.60928297   -0.40616101
 C         -1.27781796   -0.45739600   -1.39419901
 O         -1.23733795   -1.60800695   -2.23137808
 C          0.05272400   -0.18871500   -0.68510097
 O          0.79901397    0.73243201   -1.51622200
 C         -0.19851799    0.34639201    0.67905998
 C         -1.43754697    1.12052095    0.98622900
 C         -1.30292797    2.60171890    0.61903000
 O         -0.99742901    2.82091188   -0.75175101
 O         -2.59485888    0.58866602    0.31831101
 O          0.83601898    0.59400302    1.51582003
 O         -2.20313096   -1.72795999    0.40964201
 H         -1.61706996    1.07589102    2.06900597
 H         -3.36882901   -0.73559999   -0.95082003
 H          0.61619300   -1.12625301   -0.61886501
 C         -3.32232189   -2.04390192    1.23229206
 H         -0.63556498   -1.41732597   -2.96085691
 H         -2.24916005    3.11084294    0.81900299
 H         -0.53308499    3.03640509    1.26876199
 H          1.67490900    0.11128900    1.21964300
 H          1.75138903    0.69392997   -1.24113297
 H         -0.23541500    2.26444292   -0.99838799
 H         -3.50830698   -1.25490201    1.96649599
 H         -3.08503294   -2.97244406    1.75092995
 H         -4.22170687   -2.18695688    0.62168998
 H         -1.51863694    0.42644000   -1.99236000
 O          3.04914999   -0.60442501    0.96198303
 O          3.39994788    0.55646801   -0.91601700
 C          5.23729897   -0.64583200    0.03736300
 C          3.78667212   -0.19069800    0.01976000
 H          5.26996517   -1.73627806   -0.02841500
 H          5.69673681   -0.35975099    0.98619801
 H          5.80032587   -0.21462700   -0.78955197
