33
wb97x-d4 ma-def2-tzvp(-f) cpcm(dmso) E: -955.171855541143, G: -954.9514812
 C         -1.86707103   -0.56847101   -0.77749002
 C         -0.47654501   -1.19894803   -0.67084497
 O         -0.55614799   -2.56817007   -1.03664196
 C          0.09579100   -1.01470995    0.74443102
 O          1.34681106   -1.65783203    0.86672902
 C          0.07703700    0.46454599    1.04039800
 C         -1.30147600    1.02967894    0.91388202
 C         -1.40107906    2.52428699    1.13766003
 O         -2.75450301    2.96985292    1.06128502
 O         -1.80755401    0.80117798   -0.43783000
 O          1.05678499    1.26470399    0.55296803
 O         -2.75093198   -1.28234696    0.04281300
 H         -1.96984398    0.51490903    1.61073005
 H         -2.21913791   -0.59285903   -1.81593597
 H         -0.58193803   -1.50734198    1.44798601
 C         -4.10680389   -0.87589002   -0.11556400
 H          0.27425200   -2.97273993   -0.75274700
 H         -1.04072404    2.76453805    2.13938808
 H         -0.78164297    3.05222607    0.40660501
 H          1.97971904    0.86604500    0.57114601
 H          1.97631502   -1.33279598    0.16925301
 H         -3.10174704    2.66884589    0.21228801
 H         -4.71497107   -1.56232297    0.47310001
 H         -4.40512896   -0.93497300   -1.16877997
 H         -4.25886011    0.14548400    0.24565700
 H          0.16996001   -0.65871602   -1.37449300
 O          3.58678198    0.69893301    0.43094501
 O          3.17513990   -1.00009203   -0.95399398
 C          5.34172678    0.00643900   -1.03138995
 C          3.92719793   -0.10232200   -0.48586801
 H          5.99627113   -0.61054301   -0.40828601
 H          5.69847822    1.03567398   -0.98286402
 H          5.39384079   -0.36626601   -2.05453801
