33
wb97x-d4 ma-def2-tzvp(-f) cpcm(dmso) E: -955.173598351579, G: -954.95136437
 C         -2.41238093   -0.52504802   -0.50623399
 C         -1.23160601   -0.36705801   -1.45834899
 O         -1.15211499   -1.46699595   -2.35577989
 C          0.08305500   -0.11989400   -0.70791298
 O          0.83454001    0.86211902   -1.45826399
 C         -0.19470000    0.32181299    0.68538803
 C         -1.43009305    1.09285104    1.01552606
 C         -1.26990795    2.59100199    0.73867500
 O         -0.95418102    2.88297009   -0.61563700
 O         -2.57959890    0.62070698    0.29256299
 O          0.82877100    0.51945603    1.55012906
 O         -2.22122407   -1.70813596    0.22927700
 H         -1.63179505    0.98443502    2.08956790
 H         -3.34310198   -0.60039401   -1.08024800
 H          0.65904301   -1.05244994   -0.68940997
 C         -3.37177801   -2.10217595    0.97158599
 H         -1.12396801   -2.27074194   -1.81984401
 H         -2.20918393    3.10223508    0.96381599
 H         -0.49727499    2.97416496    1.41647303
 H          1.67127895    0.05680300    1.23754597
 H          1.78189695    0.81262201   -1.16584897
 H         -0.18852299    2.34112096   -0.88567299
 H         -3.13858700   -3.05843210    1.43881297
 H         -4.23612213   -2.22073507    0.30811000
 H         -3.60899901   -1.36776102    1.74617505
 H         -1.43831301    0.51089001   -2.07153702
 O          3.05927300   -0.64268303    0.95401901
 O          3.41829300    0.66572100   -0.82399303
 C          5.25391293   -0.59943402    0.00561200
 C          3.79875898   -0.15986399    0.04855700
 H          5.89329290    0.27057701    0.17456500
 H          5.48626804   -0.99095500   -0.98721302
 H          5.46507215   -1.35672998    0.75954598
