33
wb97x-d4 ma-def2-tzvp(-f) cpcm(dmso) E: -955.173637595713, G: -954.95126074
 C         -2.41294289   -0.54575902   -0.46893501
 C         -1.24312794   -0.40328199   -1.43586397
 O         -1.17105603   -1.51619005   -2.31702495
 C          0.07747500   -0.14454100   -0.70291501
 O          0.83343399    0.80159497   -1.49458301
 C         -0.18761900    0.35155001    0.67467201
 C         -1.42224503    1.13100600    0.98680001
 C         -1.27873695    2.61751699    0.64307100
 O         -0.97934097    2.85617399   -0.72550303
 O         -2.58087206    0.61706197    0.30600101
 O          0.84630197    0.59254998    1.51581395
 O         -2.20735312   -1.70885301    0.29346600
 H         -1.60862505    1.06971705    2.06698203
 H         -3.34955311   -0.64001697   -1.03050399
 H          0.64520001   -1.08107603   -0.65290499
 C         -3.35138798   -2.09325004    1.05093002
 H         -1.11978495   -2.31144691   -1.77075195
 H         -2.22092390    3.12957311    0.85403198
 H         -0.50336498    3.03710699    1.29598796
 H          1.68282795    0.10731600    1.21914005
 H          1.78095806    0.76292098   -1.19977605
 H         -0.20828401    2.31454206   -0.97953397
 H         -3.10629892   -3.03426695    1.54268098
 H         -4.21688223   -2.23838305    0.39415199
 H         -3.59277606   -1.33987701    1.80593896
 H         -1.45712698    0.46450499   -2.06094289
 O          3.05338097   -0.62812197    0.95395702
 O          3.41553211    0.65341002   -0.84241802
 C          5.24964809   -0.59940898    0.01502600
 C          3.79367304   -0.16183400    0.04012400
 H          5.56116390   -0.81162298   -1.00913405
 H          5.41243982   -1.47284496    0.64592803
 H          5.86626816    0.22423100    0.38609001
