33
wb97x-d4 ma-def2-tzvp(-f) cpcm(dmso) E: -955.171860675776, G: -954.95088319
 C         -1.87753499   -0.55707198   -0.77935898
 C         -0.48866799   -1.19573605   -0.70077699
 O         -0.57852900   -2.55583501   -1.09668803
 C          0.09981100   -1.04547405    0.71178901
 O          1.35027206   -1.69456899    0.80618900
 C          0.08852500    0.42670500    1.04206300
 C         -1.28952205    0.99778599    0.94341701
 C         -1.38325202    2.48639011    1.20593798
 O         -2.73646307    2.93590498    1.15592504
 O         -1.80943298    0.80379897   -0.40809900
 O          1.06559598    1.23457396    0.56227398
 O         -2.75796390   -1.28609502    0.03145500
 H         -1.95199800    0.46748799    1.63425601
 H         -2.23880601   -0.55540401   -1.81494498
 H         -0.57145703   -1.55273104    1.41109598
 C         -4.11259508   -0.86723500   -0.10467200
 H          0.25417101   -2.96972895   -0.83386099
 H         -1.01119494    2.70029712    2.20938993
 H         -0.77077699    3.03171992    0.48180300
 H          1.98890400    0.83516097    0.57502300
 H          1.97771800   -1.35054004    0.11638300
 H         -3.09469509    2.65339804    0.30511501
 H         -4.25578308    0.14408900    0.28708100
 H         -4.72051620   -1.56693697    0.46840999
 H         -4.41898680   -0.89370197   -1.15687895
 H          0.15267400   -0.64224398   -1.39901102
 O          3.59312892    0.66423202    0.45532799
 O          3.18834090   -0.98792398   -0.98746997
 C          5.33814192    0.06450900   -1.05172598
 C          3.93834901   -0.10756700   -0.48534301
 H          5.63952303   -0.80571002   -1.63419294
 H          6.05179405    0.24539401   -0.24637100
 H          5.34123611    0.94305599   -1.70354104
