33
wb97x-d4 ma-def2-tzvp(-f) cpcm(dmso) E: -955.17204450251, G: -954.95070865
 C         -1.64077497   -0.55526501   -0.59122503
 C         -0.38273901   -0.06298300   -1.31609404
 O          0.29683000   -1.12026596   -1.95295703
 C          0.50084603    0.73002702   -0.33794799
 O          1.58220506    1.34521997   -1.00818098
 C         -0.35703400    1.78948295    0.29378101
 C         -1.65870595    1.33696902    0.86799097
 C         -2.57863212    2.45308709    1.33545303
 O         -3.05401897    3.30110407    0.29597101
 O         -2.39267206    0.53336000   -0.09140900
 O         -0.35655600    3.00249505   -0.34762901
 O         -1.25100994   -1.44515800    0.42111999
 H         -1.44452500    0.70830202    1.73996103
 H         -2.31025910   -1.06203699   -1.29677904
 H          0.86333001    0.04436200    0.43572900
 C         -2.35222006   -2.09037209    1.05225897
 H          1.04039299   -1.43725896   -1.38056397
 H         -3.46211910    2.00603890    1.79523897
 H         -2.04754901    3.03106308    2.10150409
 H          0.48155099    3.05494308   -0.83739799
 H          2.36792707    0.73498702   -0.92494500
 H         -2.28004003    3.64439011   -0.16889600
 H         -2.95014095   -1.37874699    1.62925994
 H         -1.93918502   -2.84374094    1.72302699
 H         -2.99267793   -2.57597208    0.30674499
 H         -0.72620398    0.63126397   -2.09176898
 O          3.63047099   -0.26131400   -0.65638500
 O          2.35773611   -2.10198593   -0.55669701
 C          4.67527103   -2.31984711   -0.05498600
 C          3.45669603   -1.49512398   -0.44531399
 H          5.45369911   -1.69357097    0.38112599
 H          5.07490396   -2.78977203   -0.95883000
 H          4.39520788   -3.11368203    0.63883901
