33
wb97x-d4 ma-def2-tzvp(-f) cpcm(dmso) E: -955.170409738, G: -954.9505996199999
 C         -2.06083107   -0.71461099   -0.40317899
 C         -0.85159999   -1.63221395   -0.53222001
 O         -0.95793802   -2.74804497    0.34020299
 C          0.41311899   -0.81791002   -0.23911400
 O          0.64492100    0.04665700   -1.36392498
 C          0.23372500   -0.06400900    1.03974605
 C         -1.08729196    0.57460302    1.35814595
 C         -1.22104096    1.99308705    0.78764403
 O         -2.43301201    2.63014197    1.18825400
 O         -2.16790795   -0.27399600    0.94787699
 O          1.29777801    0.53897899    1.62140095
 O         -3.22202992   -1.40831006   -0.72460699
 H         -1.18878400    0.65438098    2.44707298
 H         -1.93985605    0.14792600   -1.07034504
 H          1.25148296   -1.51639998   -0.14168000
 C         -4.35985422   -0.55857700   -0.87107599
 H         -1.17674196   -2.40210199    1.21639299
 H         -0.34914401    2.56863999    1.11483800
 H         -1.22516298    1.97941399   -0.30222499
 H          2.16798401    0.20182499    1.23082900
 H          1.59267700    0.32417300   -1.31875396
 H         -2.40577698    2.75059891    2.14493608
 H         -4.16196299    0.22137301   -1.61476803
 H         -4.62965679   -0.09238000    0.07970000
 H         -5.18090391   -1.18769097   -1.21333599
 H         -0.79670101   -2.02314401   -1.54935002
 O          3.60727596   -0.20226800    0.72544402
 O          3.24916291    0.73118597   -1.27750301
 C          5.47246599    0.05894700   -0.73453403
 C          3.99628091    0.21866100   -0.40320799
 H          6.07905006    0.04607100    0.17110500
 H          5.80604982    0.85234302   -1.40404499
 H          5.60422516   -0.89734900   -1.24972296
