33
wb97x-d4 ma-def2-tzvp(-f) cpcm(dmso) E: -955.170101300843, G: -954.95055623
 C         -2.11581993   -0.52656698   -0.75406498
 C         -0.89344001   -0.52887303   -1.66477096
 O         -0.73138797   -1.80042005   -2.27736592
 C          0.35990199   -0.08693000   -0.91733801
 O          1.36138296    0.19432800   -1.89791203
 C          0.06980300    1.08885098   -0.02605100
 C         -1.27259898    1.21947300    0.63060898
 C         -1.61584795    2.66098690    0.97027302
 O         -2.82837200    2.74998808    1.71475995
 O         -2.33060098    0.75594801   -0.21511500
 O          1.07552195    1.57005203    0.74893999
 O         -1.90969503   -1.50450206    0.22949900
 H         -1.28828204    0.63693899    1.56618297
 H         -3.02110910   -0.75202501   -1.32900596
 H          0.70540297   -0.93171799   -0.29673001
 C         -3.07220197   -1.77403796    1.01067305
 H         -0.70495802   -2.45708895   -1.56904197
 H         -0.82898599    3.08507609    1.59375799
 H         -1.68629003    3.24138188    0.04289800
 H          1.97347999    1.19936395    0.46999300
 H          2.20421910    0.32155901   -1.41912699
 H         -3.52472806    2.35419512    1.17690897
 H         -3.34805608   -0.90505302    1.61476099
 H         -2.82612991   -2.60947204    1.66540504
 H         -3.91243196   -2.04837298    0.36339200
 H         -1.08169103    0.17983501   -2.47406292
 O          3.34507394    0.65068299   -0.08783000
 O          3.66444802   -0.51361698    1.79185605
 C          4.90022612   -1.14519000   -0.16264600
 C          3.89757609   -0.28657299    0.59200400
 H          4.41236115   -1.59953105   -1.02893698
 H          5.31384611   -1.92538905    0.47584200
 H          5.70938921   -0.51329601   -0.53775901
