33
wb97x-d4 ma-def2-tzvp(-f) cpcm(dmso) E: -955.171668543098, G: -954.95054799
 C         -1.91004300   -0.71998602   -0.73741102
 C         -0.49792001   -1.30704200   -0.59094399
 O         -0.52948701   -2.70671606   -0.82608098
 C          0.09929300   -0.93673700    0.78150600
 O          1.39924097   -1.45035601    0.95996100
 C         -0.01142800    0.56066102    0.92580599
 C         -1.41216099    1.06075096    0.77554899
 C         -1.53163397    2.57891512    0.81087703
 O         -0.97317398    3.12475705    2.00045609
 O         -1.94235897    0.66900498   -0.52155298
 O          0.92576200    1.36706603    0.36474499
 O         -2.73266196   -1.42504895    0.16064900
 H         -2.04088306    0.61658901    1.55349195
 H         -2.27296591   -0.86394298   -1.76177204
 H         -0.53298002   -1.39077103    1.55226505
 C         -4.12101603   -1.16021502   -0.01678800
 H         -1.21961606   -3.07219696   -0.25650701
 H         -1.04826403    2.99874592   -0.07645700
 H         -2.58633399    2.85886097    0.79617703
 H          1.86411405    1.00181305    0.37005100
 H          1.96625102   -1.22480595    0.17976700
 H         -0.02361000    2.95265603    1.97042501
 H         -4.66081381   -1.82995498    0.65218103
 H         -4.42028618   -1.35762000   -1.05234802
 H         -4.35773802   -0.12339700    0.23754101
 H          0.13016500   -0.87445903   -1.37417197
 O          3.46379304    0.89176601    0.17161500
 O          3.13599610   -0.96239197   -1.02528203
 C          5.23684788    0.15812001   -1.24616301
 C          3.83829498    0.02088300   -0.66578001
 H          5.30359411   -0.32475799   -2.22128797
 H          5.93866682   -0.33777499   -0.56877398
 H          5.52335215    1.20758200   -1.32174098
