33
wb97x-d4 ma-def2-tzvp(-f) cpcm(dmso) E: -955.171499386903, G: -954.95054282
 C         -1.39835203   -0.57526201   -0.63895601
 C          0.05786800   -0.79619002   -0.22692201
 O          0.41758800   -2.14658499   -0.41492501
 C          0.25217199   -0.33509099    1.21586597
 O          1.59448195   -0.40618199    1.66560400
 C         -0.28047499    1.06108797    1.34348404
 C         -1.64102805    1.33812702    0.78830397
 C         -1.94790196    2.82112503    0.66432101
 O         -3.27800393    3.04005694    0.20340499
 O         -1.74103200    0.79583699   -0.53626299
 O          0.03583900    1.72396505    2.49605799
 O         -2.22409391   -1.38494897    0.15003900
 H         -2.41717196    0.87622899    1.42035604
 H         -1.53091502   -0.81884199   -1.69941497
 H         -0.32483500   -1.00559998    1.87129295
 C         -3.57377791   -1.41345894   -0.30667099
 H          1.38052797   -2.14753103   -0.64571798
 H         -1.86932003    3.29303098    1.64417601
 H         -1.21985304    3.28536296   -0.01114100
 H          0.87254798    1.33901703    2.80479908
 H          2.21231294   -0.21470900    0.90963101
 H         -3.36342502    2.58903909   -0.64554203
 H         -4.10162115   -2.14185500    0.30845100
 H         -3.61642408   -1.72261906   -1.35742903
 H         -4.04824018   -0.43365800   -0.19949199
 H          0.66118801   -0.15232800   -0.87726802
 O          3.39187288    0.00089100   -0.25182301
 O          3.00550604   -2.02834105   -1.11696398
 C          5.01154709   -0.89441901   -1.74667203
 C          3.70229006   -0.98710102   -0.97434598
 H          5.79230022   -0.46078101   -1.11932504
 H          4.86377192   -0.22729200   -2.60121489
 H          5.32465982   -1.87097502   -2.11570001
