33
wb97x-d4 ma-def2-tzvp(-f) cpcm(dmso) E: -955.17133888333, G: -954.95043555
 C         -2.17961407   -0.52717698   -0.84969300
 C         -0.89065599   -1.24697495   -1.24147904
 O         -1.18248999   -2.55552602   -1.71248496
 C          0.11020700   -1.26077402   -0.08262400
 O          1.35959196   -1.79451895   -0.48062199
 C          0.21378900    0.11532500    0.51806200
 C         -1.06486702    0.87282300    0.73102897
 C         -0.83028799    2.35752106    0.95731300
 O         -2.05256104    3.04595208    1.20807195
 O         -1.91379905    0.78771198   -0.42225999
 O          1.13142598    0.33229700    1.49207699
 O         -2.80782700   -1.30069804    0.13878199
 H         -1.61216199    0.47136801    1.59948504
 H         -2.83933902   -0.41999900   -1.71846104
 H         -0.28212199   -1.94884503    0.68483502
 C         -4.13567877   -0.87070900    0.42942101
 H         -1.70593596   -2.99282002   -1.02809203
 H         -0.19818200    2.49812293    1.83312595
 H         -0.32142800    2.77788591    0.08161800
 H          2.06173706    0.04827300    1.22278500
 H          1.95929897   -1.06933296   -0.78504902
 H         -2.64051604    2.85978198    0.46564999
 H         -4.55928612   -1.59494197    1.12465096
 H         -4.73771191   -0.84445399   -0.48574600
 H         -4.13394308    0.12095100    0.89071900
 H         -0.44784200   -0.70695603   -2.08162904
 O          3.26387501   -0.04727000   -1.22630501
 O          3.64349198   -0.02640400    0.97522998
 C          5.43713999    0.59592003   -0.46439001
 C          4.00884390    0.13110299   -0.22616000
 H          6.10888386    0.17462800    0.28467700
 H          5.46368408    1.68538594   -0.36552101
 H          5.77428007    0.33235401   -1.46701801
