33
wb97x-d4 ma-def2-tzvp(-f) cpcm(dmso) E: -955.169785231426, G: -954.9503482399999
 C         -2.08671498   -0.72539800   -0.39562899
 C         -0.91007000   -1.67917204   -0.56177402
 O         -1.04883504   -2.81873107    0.27361599
 C          0.38274100   -0.91756701   -0.25342101
 O          0.61821401   -0.02083700   -1.35327303
 C          0.23697700   -0.21182901    1.05365205
 C         -1.05664206    0.46259999    1.40772402
 C         -1.12833500    1.90171695    0.89999998
 O         -2.27606297    2.52876401    1.47517598
 O         -2.17454600   -0.32168099    0.96821100
 O          1.31842196    0.30010000    1.68314195
 O         -3.27166390   -1.37012005   -0.73103702
 H         -1.15106797    0.50253701    2.49839997
 H         -1.93940699    0.15274200   -1.03680396
 H          1.20261204   -1.64262795   -0.19599301
 C         -4.37584877   -0.47623101   -0.86737400
 H         -1.23792195   -2.49451804    1.16463804
 H         -0.21144100    2.41129899    1.21422100
 H         -1.17880595    1.92909706   -0.19219100
 H          2.18730402    0.00571000    1.24993598
 H          1.55455101    0.28202501   -1.28139305
 H         -2.32281208    3.42977190    1.13723695
 H         -4.14669323    0.30532101   -1.60051203
 H         -4.62893677   -0.01288400    0.08973500
 H         -5.21995306   -1.06907797   -1.21897805
 H         -0.87556601   -2.03744793   -1.59196305
 O          3.62830305   -0.30195099    0.72291702
 O          3.18899298    0.78679198   -1.18066001
 C          5.46277714    0.23206399   -0.69396800
 C          3.97871900    0.25017399   -0.36248100
 H          5.69755888    0.93834001   -1.49011600
 H          5.73030806   -0.77511501   -1.02667999
 H          6.05384111    0.45613301    0.19564299
