33
wb97x-d4 ma-def2-tzvp(-f) cpcm(dmso) E: -955.172397929801, G: -954.95023797
 C         -1.76732695   -0.52206600   -0.81229001
 C         -0.38498101   -1.17538702   -0.66964602
 O         -0.44554099   -2.52900004   -1.09200501
 C          0.14123900   -1.00682604    0.77174503
 O          1.40324295   -1.60437095    0.96371299
 C          0.08723400    0.46890900    1.08640397
 C         -1.28929102    1.02995098    0.94548202
 C         -1.40222704    2.51826596    1.20289505
 O         -2.75699401    2.95973396    1.11582303
 O         -1.76323104    0.82993400   -0.42128500
 O          1.07483304    1.28262103    0.63124198
 O         -2.65922308   -1.30081797   -0.05227500
 H         -1.96701205    0.49569800    1.61842597
 H         -2.07785010   -0.52109098   -1.86325204
 H         -0.55832303   -1.51509404    1.44341505
 C         -4.02786207   -0.96442002   -0.26263800
 H         -1.15596104   -2.95132899   -0.59088999
 H         -1.06048501    2.73577499    2.21593595
 H         -0.77372998    3.06710100    0.49563700
 H          1.98970199    0.87227499    0.64528197
 H          2.02081299   -1.35275304    0.22947299
 H         -3.08169103    2.70740390    0.24236800
 H         -4.24105310    0.04844400    0.08987100
 H         -4.62147903   -1.67880797    0.30666900
 H         -4.28292179   -1.04076004   -1.32554400
 H          0.29952800   -0.66865897   -1.35411000
 O          3.60961604    0.69547200    0.43352601
 O          3.25283289   -1.06592500   -0.89325702
 C          5.36594677    0.03789700   -1.04172099
 C          3.97396898   -0.12974700   -0.45101801
 H          6.04275322    0.49632400   -0.32033700
 H          5.29182291    0.70087200   -1.90902698
 H          5.76364899   -0.91962498   -1.37861097
