33
wb97x-d4 ma-def2-tzvp(-f) cpcm(dmso) E: -955.169647221926, G: -954.95022797
 C         -2.23132396   -0.66097403   -0.58934402
 C         -1.05888999   -0.56570101   -1.55276704
 O         -0.89254802   -1.80599797   -2.22302198
 C          0.20774500   -0.15167101   -0.82404298
 O          1.18325698    0.12066100   -1.83352304
 C         -0.07571100    1.01379704    0.07855000
 C         -1.41910398    1.13769495    0.75114399
 C         -1.75955999    2.58605099    1.07360804
 O         -1.77078998    3.42452312   -0.07705500
 O         -2.48252296    0.61845899   -0.04863200
 O          0.93050802    1.49979401    0.84823298
 O         -1.94609499   -1.61509705    0.39355499
 H         -1.39031005    0.59535998    1.71076000
 H         -3.14889789   -0.93050897   -1.12529397
 H          0.55664402   -1.00504601   -0.22077601
 C         -3.06526399   -1.90488100    1.22792494
 H         -0.08795000   -1.72810698   -2.75135708
 H         -2.76177597    2.62907004    1.50482905
 H         -1.04309297    2.95260596    1.81616104
 H          1.83117497    1.17159200    0.53234202
 H          2.04497695    0.21865700   -1.37804997
 H         -0.95148998    3.25581193   -0.56148601
 H         -3.34085703   -1.03749394    1.83468294
 H         -2.76944709   -2.72539401    1.88119197
 H         -3.92602205   -2.21051693    0.62243700
 H         -1.31124401    0.22047800   -2.27419806
 O          3.17751408    0.60806298   -0.09350800
 O          3.75500107   -0.32427901    1.85170901
 C          4.79564714   -1.13460004   -0.14897600
 C          3.83855391   -0.23197199    0.61465502
 H          5.16935110   -1.93781996    0.48571599
 H          5.64068985   -0.53262001   -0.49560699
 H          4.30183077   -1.54993904   -1.02986300
