33
wb97x-d4 ma-def2-tzvp(-f) cpcm(dmso) E: -955.172370177895, G: -954.95017267
 C         -1.76393402   -0.53038800   -0.81464601
 C         -0.38646999   -1.19100499   -0.65753001
 O         -0.45703501   -2.55135989   -1.05633402
 C          0.13798800   -1.00337195    0.78228498
 O          1.39498496   -1.60741603    0.98633498
 C          0.08958300    0.47675401    1.07735705
 C         -1.28580999    1.03881502    0.92682701
 C         -1.39764500    2.52990890    1.16817498
 O         -2.75109005    2.97237110    1.06868100
 O         -1.75384998    0.82596999   -0.44023001
 O          1.07703602    1.28344297    0.61110300
 O         -2.66426206   -1.29445505   -0.04953800
 H         -1.96777201    0.51211900    1.60140800
 H         -2.06972408   -0.54056197   -1.86705697
 H         -0.56515300   -1.49904704    1.45962501
 C         -4.02941179   -0.95041299   -0.26974899
 H         -1.18222904   -2.95445108   -0.56055999
 H         -1.06116605    2.75756097    2.18083596
 H         -0.76419502    3.07020211    0.45867199
 H          1.99330997    0.87380600    0.61976397
 H          2.03000212   -1.33093405    0.27774900
 H         -3.07186007    2.70822692    0.19731399
 H         -4.27930307   -1.03343403   -1.33344305
 H         -4.23727179    0.06681700    0.07347000
 H         -4.63103485   -1.65617704    0.30200800
 H          0.30339101   -0.70128399   -1.34872103
 O          3.61058307    0.70246500    0.43535501
 O          3.21886492   -1.04130995   -0.90199298
 C          5.36207485    0.02016600   -1.02698600
 C          3.95589399   -0.11657700   -0.46415499
 H          6.07234383   -0.34089401   -0.27763101
 H          5.59000921    1.06970501   -1.22047102
 H          5.48315382   -0.56524700   -1.93792105
