33
wb97x-d4 ma-def2-tzvp(-f) cpcm(dmso) E: -955.169806248532, G: -954.95014434
 C         -2.06232691   -0.74186200   -0.36425000
 C         -0.85674798   -1.66808498   -0.46452001
 O         -0.97056597   -2.75999308    0.43651000
 C          0.41171500   -0.85336697   -0.18979800
 O          0.64881599   -0.01826600   -1.33589494
 C          0.23106299   -0.06895900    1.06956506
 C         -1.08545995    0.58938402    1.36686003
 C         -1.20073795    1.99084103    0.76947099
 O         -2.37064600    2.61447597    1.30331194
 O         -2.17286992   -0.25834799    0.97123700
 O          1.29519701    0.52811903    1.65495098
 O         -3.22458291   -1.44290304   -0.66663998
 H         -1.19117296    0.69720000    2.45192599
 H         -1.93721795    0.09907400   -1.05789697
 H          1.24671495   -1.55296302   -0.07366900
 C         -4.35905218   -0.59607202   -0.84849000
 H         -1.18273795   -2.39024305    1.30453098
 H         -0.30142501    2.54764891    1.05178404
 H         -1.24934995    1.94879198   -0.32224199
 H          2.16691089    0.18370700    1.27176094
 H          1.59146094    0.27228501   -1.28506398
 H         -2.44758511    3.49046993    0.90919000
 H         -5.18356895   -1.23604000   -1.16122305
 H         -4.15963316    0.14936100   -1.62637198
 H         -4.62548399   -0.08755000    0.08139700
 H         -0.80249900   -2.08586693   -1.47100902
 O          3.60488892   -0.22378500    0.78053200
 O          3.24506593    0.71213800   -1.22032201
 C          5.46916485    0.03598500   -0.67899698
 C          3.99332190    0.19809900   -0.34845200
 H          6.07753992    0.06641800    0.22519200
 H          5.79536009    0.80209100   -1.38281703
 H          5.60644484   -0.94178498   -1.15056300
