33
wb97x-d4 ma-def2-tzvp(-f) cpcm(dmso) E: -955.171456792971, G: -954.95013368
 C         -1.39179504   -0.54073799   -0.65572399
 C          0.06353200   -0.78005701   -0.25110400
 O          0.42374799   -2.12134910   -0.49449000
 C          0.25739500   -0.37893799    1.20971501
 O          1.59960902   -0.46984899    1.65757406
 C         -0.27537301    1.01108599    1.39532697
 C         -1.63605595    1.30922699    0.85174298
 C         -1.94796097    2.79497600    0.79235202
 O         -3.27642107    3.02908897    0.33395800
 O         -1.73326397    0.82526797   -0.49581799
 O          0.03752200    1.62389398    2.57622194
 O         -2.21975899   -1.38184202    0.09737200
 H         -2.41146898    0.81669599    1.46104002
 H         -1.52257097   -0.73918301   -1.72569501
 H         -0.32084399   -1.07522702    1.83660698
 C         -3.56817508   -1.39292705   -0.36354500
 H          1.38648605   -2.11126590   -0.72971803
 H         -1.87646794    3.22330904    1.79252303
 H         -1.21865404    3.29184389    0.14196400
 H          0.87359601    1.22662699    2.87064290
 H          2.21879196   -0.25500700    0.90938902
 H         -3.35709405    2.61093211   -0.53219998
 H         -3.60847497   -1.66688597   -1.42408597
 H         -4.04153585   -0.41660100   -0.22478600
 H         -4.09858894   -2.14058805    0.22567999
 H          0.66763502   -0.10974500   -0.87325901
 O          3.38745904   -0.00652300   -0.26078400
 O          3.00286508   -2.00094390   -1.20386100
 C          4.99176979   -0.83558100   -1.81520998
 C          3.69624710   -0.96226102   -1.02522802
 H          4.77329016   -0.30858001   -2.74921894
 H          5.39571095   -1.81713200   -2.06473088
 H          5.72884798   -0.25172299   -1.26264799
