33
wb97x-d4 ma-def2-tzvp(-f) cpcm(dmso) E: -955.17194130901, G: -954.9519848799999
 C         -2.33121490   -0.52263600   -0.69920599
 C         -1.15510297   -0.51762301   -1.66223204
 O         -1.09027100   -1.75870299   -2.34881306
 C          0.14584500   -0.21882500   -0.93339002
 O          1.15201604   -0.01691100   -1.91839194
 C         -0.03287600    0.96450698   -0.02812500
 C         -1.35244906    1.17254305    0.66833001
 C         -1.57493699    2.63715601    1.02149999
 O         -2.73273897    2.83865309    1.82988906
 O         -2.46109700    0.76626599   -0.13744999
 O          1.02238595    1.35864103    0.72743702
 O         -2.13875890   -1.51644695    0.26741299
 H         -1.36156702    0.58982801    1.60570395
 H         -3.27148390   -0.69544101   -1.23633003
 H          0.41411999   -1.10240495   -0.33128300
 C         -3.28035498   -1.70705402    1.09947503
 H         -0.27127799   -1.73923302   -2.86115289
 H         -0.68123198    3.02168703    1.51994896
 H         -1.73532200    3.20391107    0.10175100
 H          1.89704895    0.96309000    0.43643999
 H          1.99497604   -0.43671000   -1.59906399
 H         -2.55670595    2.46247697    2.70009398
 H         -4.16877222   -1.91059899    0.49078900
 H         -3.46538901   -0.82810599    1.72392797
 H         -3.06961608   -2.56668496    1.73527706
 H         -1.34134495    0.29501200   -2.37480807
 O          3.46123290    0.51517302    0.41108301
 O          3.39696503   -1.13079798   -1.09928703
 C          5.39238405   -0.85219401    0.19011500
 C          3.97520089   -0.46303701   -0.20026501
 H          5.40990686   -1.13338494    1.24606502
 H          6.05233812    0.00999800    0.06851200
 H          5.75808907   -1.68215096   -0.41395199
