33
wb97x-d4 ma-def2-tzvp(-f) cpcm(dmso) E: -955.171078921054, G: -954.9499627399999
 C         -2.06255293   -0.70511198   -0.42259499
 C         -1.23363304   -1.98040295   -0.39355600
 O         -1.76735699   -2.91729212    0.53195000
 C          0.21015801   -1.60032904   -0.04380400
 O          0.79764402   -1.07400298   -1.25223196
 C          0.21528500   -0.67100298    1.11549497
 C         -0.92729199    0.22112100    1.49147999
 C         -0.64063698    1.70344102    1.21072602
 O         -0.24458200    1.97972703   -0.12511200
 O         -2.16821790   -0.20553300    0.91153401
 O          1.32649195   -0.48613301    1.86911297
 O         -3.34917092   -0.98337400   -0.87026900
 H         -1.08501399    0.15189700    2.57619596
 H         -1.58124697    0.04417200   -1.06057894
 H          0.75211602   -2.51399302    0.23236600
 C         -4.10254097    0.19137400   -1.17169797
 H         -2.06968307   -2.41408205    1.30074596
 H         -1.55431998    2.27206802    1.40161395
 H          0.12616600    2.03563309    1.91972196
 H          2.16802502   -0.51181799    1.31334698
 H          1.34470201   -0.29096001   -1.02948201
 H          0.67507797    1.67894495   -0.24109299
 H         -4.26840019    0.79398602   -0.27520400
 H         -5.06103516   -0.14200801   -1.56816804
 H         -3.58422494    0.79460001   -1.92524695
 H         -1.24610102   -2.44931006   -1.37883401
 O          3.54414296   -0.27886301    0.54899698
 O          2.37856102    1.10739100   -0.75942999
 C          4.75360203    1.28406894   -0.79543698
 C          3.46532702    0.66185403   -0.28780699
 H          4.65274811    2.36955309   -0.84259403
 H          4.93455791    0.92346501   -1.81205797
 H          5.60140705    1.01091897   -0.16809000
