33
wb97x-d4 ma-def2-tzvp(-f) cpcm(dmso) E: -955.171952660534, G: -954.9499536
 C         -2.40552902   -0.63247198   -0.39869201
 C         -1.25940096   -0.46543899   -1.38592100
 O         -1.19496000   -1.62012696   -2.21620703
 C          0.06337300   -0.16974500   -0.67418802
 O          0.80763900    0.74132103   -1.51813197
 C         -0.20284900    0.38996300    0.67769200
 C         -1.45849395    1.14476597    0.96426302
 C         -1.35527301    2.61842299    0.55818701
 O         -1.04770803    2.80788708   -0.81679702
 O         -2.60450792    0.56864798    0.31280500
 O          0.82469600    0.67906803    1.50987995
 O         -2.15683699   -1.73697197    0.42920899
 H         -1.63698995    1.12508798    2.04783106
 H         -3.34447503   -0.78765202   -0.94312298
 H          0.63501698   -1.10040104   -0.58571500
 C         -3.26770306   -2.07120705    1.25596404
 H         -0.61097002   -1.41498303   -2.95613408
 H         -2.31362891    3.11133909    0.73983502
 H         -0.59872699    3.08772111    1.19930506
 H          1.66911995    0.19174799    1.23568499
 H          1.76062500    0.69493300   -1.24872196
 H         -0.26456699    2.27223396   -1.04103696
 H         -3.00727391   -2.98736501    1.78535604
 H         -4.16326284   -2.24378610    0.64740700
 H         -3.47320890   -1.27866399    1.98100996
 H         -1.51423204    0.41028601   -1.98979902
 O          3.03536701   -0.55368602    1.01735306
 O          3.40423799    0.54196697   -0.89634198
 C          5.20868301   -0.70076698    0.05371100
 C          3.77167511   -0.20342200    0.04913000
 H          5.27783585   -1.67807198    0.53216898
 H          5.81281424    0.00388000    0.63304198
 H          5.60951281   -0.74450898   -0.95902598
