33
wb97x-d4 ma-def2-tzvp(-f) cpcm(dmso) E: -955.170118262716, G: -954.94970097
 C         -2.11128092   -0.51053703   -0.67118102
 C         -1.06691301   -0.42713901   -1.77855396
 O         -1.02157199   -1.64134598   -2.51489997
 C          0.30222699   -0.03277600   -1.23407996
 O          1.10240602    0.37548700   -2.34441900
 C          0.18294200    1.03573000   -0.18245900
 C         -1.03303695    1.11432004    0.69385397
 C         -1.28386796    2.53022289    1.19139695
 O         -2.35924911    2.58114290    2.12454510
 O         -2.21984291    0.72281599    0.00006000
 O          1.31232798    1.41899097    0.46919501
 O         -1.74763405   -1.56415904    0.17897999
 H         -0.90174198    0.46150699    1.57193398
 H         -3.10327697   -0.69500601   -1.09918797
 H          0.76157200   -0.92797703   -0.78033602
 C         -2.76880193   -1.90747297    1.11350298
 H         -0.85985202   -2.35319710   -1.88215899
 H         -0.39611399    2.89347410    1.70902205
 H         -1.48368204    3.17954111    0.33076000
 H          2.13634109    1.10483396   -0.01239600
 H          2.02485800    0.43746701   -2.02017093
 H         -3.14370203    2.24214196    1.67660797
 H         -2.42225599   -2.78684497    1.65558600
 H         -3.70187998   -2.14321303    0.58969802
 H         -2.94488811   -1.08974898    1.81824899
 H         -1.39278996    0.34553701   -2.47835302
 O          3.37028003    0.61467397   -0.89652801
 O          4.57394600   -1.19701898   -1.39332604
 C          4.05073977   -0.78022897    0.90969801
 C          4.01157999   -0.44918400   -0.57601202
 H          4.41798878    0.08186500    1.47121596
 H          4.68160582   -1.64684999    1.10550499
 H          3.03356504   -0.98705298    1.25425196
