33
wb97x-d4 ma-def2-tzvp(-f) cpcm(dmso) E: -955.171259236459, G: -954.9496090399999
 C         -2.17475390   -0.73934501   -0.31961200
 C         -1.18093801   -1.88980603   -0.44218999
 O         -1.47046304   -2.92839408    0.48112699
 C          0.24020199   -1.35043097   -0.22526100
 O          0.57911497   -0.58451498   -1.39786303
 C          0.25418800   -0.56895298    1.03953302
 C         -0.86190099    0.36931199    1.36215901
 C         -0.70767701    1.76566696    0.72238398
 O          0.51882899    2.37679791    1.08786905
 O         -2.13495588   -0.19289599    0.99773997
 O          1.33521700   -0.53021598    1.85012305
 O         -3.46385288   -1.21103704   -0.54285997
 H         -0.89835000    0.50373697    2.44747400
 H         -1.92331398    0.03611000   -1.05347896
 H          0.92237800   -2.20390511   -0.13303800
 C         -4.41929293   -0.16702899   -0.72735399
 H         -1.51936495   -2.52505493    1.35830402
 H         -0.78988600    1.69357002   -0.36638200
 H         -1.51762998    2.40397406    1.08639097
 H          2.19448805   -0.54933298    1.31947303
 H          1.25362396    0.07385100   -1.13129604
 H          1.22653997    1.97454596    0.54813200
 H         -4.54935789    0.41472101    0.18886600
 H         -5.36206484   -0.64613301   -0.99077398
 H         -4.10735703    0.49851301   -1.54021704
 H         -1.25820100   -2.32042694   -1.44260097
 O          3.51324296   -0.40937099    0.45238501
 O          2.47226810    1.26165199   -0.60212702
 C          4.83819914    1.10259199   -0.83990598
 C          3.51202989    0.60958302   -0.29056001
 H          5.61228418    0.34064600   -0.75120199
 H          5.14167404    1.98215199   -0.26439101
 H          4.72508621    1.40942502   -1.88084698
