33
wb97x-d4 ma-def2-tzvp(-f) cpcm(dmso) E: -955.172773075929, G: -954.95190866
 C         -2.48536897   -0.58390498   -0.62789899
 C         -1.28969395   -0.70247698   -1.56155097
 O         -1.29534602   -1.98078799   -2.17801404
 C          0.01569900   -0.44733700   -0.82289797
 O          1.04733706   -0.38777900   -1.79716396
 C         -0.11352100    0.81156403   -0.01727600
 C         -1.40831900    1.07803094    0.70232201
 C         -1.59283996    2.55457997    1.05651999
 O         -0.69724202    2.97927403    2.07746005
 O         -2.53661299    0.72866601   -0.10362200
 O          0.96709597    1.26473498    0.67090797
 O         -2.38948703   -1.55619395    0.37263101
 H         -1.44076002    0.50000101    1.64043903
 H         -3.42254305   -0.70339602   -1.18426204
 H          0.20758399   -1.29895496   -0.14938800
 C         -3.56474209   -1.64112198    1.17543304
 H         -0.47127500   -2.04070497   -2.67886710
 H         -1.47182298    3.16124892    0.15075099
 H         -2.60626602    2.69616389    1.43857300
 H          1.86370599    1.01859498    0.27667600
 H          1.88968301   -0.71249998   -1.38324201
 H          0.18646100    2.69427705    1.80248797
 H         -4.44556808   -1.81499100    0.54687202
 H         -3.71221304   -0.72722298    1.75804496
 H         -3.42698503   -2.48471594    1.85133803
 H         -1.40724099    0.08086400   -2.32036996
 O          3.32310605   -1.22916698   -0.73145503
 O          3.43602800    0.85042602    0.07655000
 C          5.44457102   -0.43327001    0.01746400
 C          3.95343804   -0.26351899   -0.22262900
 H          5.97218800   -0.15699200   -0.90055698
 H          5.68262577   -1.47294605    0.24462900
 H          5.78831720    0.21955501    0.82009101
