33
wb97x-d4 ma-def2-tzvp(-f) cpcm(dmso) E: -955.171089054786, G: -954.9495769399999
 C         -2.21333599   -0.51446801   -0.81834799
 C         -0.90662402   -1.18112004   -1.22719502
 O         -1.17686296   -2.47039890   -1.75751996
 C          0.05864700   -1.25920296   -0.04749300
 O          1.28305304   -1.84914804   -0.45046699
 C          0.19135199    0.10216100    0.57299697
 C         -1.08633602    0.86287802    0.78947401
 C         -0.85078800    2.34322405    1.03830695
 O         -2.07114792    3.02850389    1.30930197
 O         -1.93846703    0.79650199   -0.36521000
 O          1.10273600    0.28687200    1.56021798
 O         -2.84621692   -1.29448795    0.15508801
 H         -1.63344705    0.44942701    1.65270805
 H         -2.87225103   -0.38280201   -1.68449700
 H         -0.37339100   -1.94769800    0.69564998
 C         -4.16029692   -0.83754301    0.46629301
 H         -0.31864399   -2.90096211   -1.86795795
 H         -0.21377400    2.46879005    1.91289699
 H         -0.34691700    2.77845311    0.16735800
 H          2.02193308   -0.01948700    1.28949499
 H          1.90231800   -1.15319598   -0.79348803
 H         -2.66308498    2.85988998    0.56574500
 H         -4.13358402    0.14065500    0.95475602
 H         -4.59760904   -1.57006705    1.14401102
 H         -4.76863623   -0.77106702   -0.44285700
 H         -0.45818299   -0.54378003   -1.99944794
 O          3.15613294   -0.10686800   -1.23956800
 O          3.60341597   -0.10079500    0.95234197
 C          5.33152199    0.59243602   -0.52821797
 C          3.91893792    0.09613900   -0.25629100
 H          5.59730816    1.38026500    0.17869300
 H          5.43528414    0.95491499   -1.55063295
 H          6.02695322   -0.23802200   -0.37614599
