33
wb97x-d4 ma-def2-tzvp(-f) cpcm(dmso) E: -955.170609421843, G: -954.94953271
 C         -2.42332411   -0.41444099   -0.70717603
 C         -1.20343602   -0.91256601   -1.46603096
 O         -1.57830095   -2.01988292   -2.27541208
 C         -0.07222100   -1.25966501   -0.50963002
 O          1.11642003   -1.41555405   -1.30095994
 C          0.04264300   -0.22640800    0.56298101
 C         -1.10409403    0.64239401    0.98024601
 C         -0.60939002    2.04005790    1.34755695
 O          0.15631001    2.65147901    0.32271701
 O         -2.08988810    0.78750497   -0.04620400
 O          0.95968997   -0.41340700    1.54980099
 O         -2.86241603   -1.41060102    0.17248601
 H         -1.58197701    0.22046199    1.88048196
 H         -3.22332811   -0.14593001   -1.40691698
 H         -0.29806000   -2.23306608   -0.04521200
 C         -4.11673498   -1.10375202    0.77628499
 H         -0.81044102   -2.25944710   -2.80820298
 H         -1.47530103    2.68028593    1.53428900
 H         -0.03312900    1.96354902    2.27568007
 H          1.86758697   -0.50565600    1.12408102
 H          1.89325297   -1.14679301   -0.77734101
 H          0.98808700    2.15044594    0.21072400
 H         -4.03588390   -0.23508599    1.43605602
 H         -4.41082287   -1.97600400    1.35939395
 H         -4.87321281   -0.90568101    0.00858000
 H         -0.87249601   -0.08215200   -2.09923410
 O          3.24450397   -0.48469400    0.32637501
 O          2.76348495    1.65571797   -0.12122500
 C          5.00173378    0.89216900   -0.48920900
 C          3.55498600    0.69121301   -0.06846000
 H          5.16079998    1.88824201   -0.90082902
 H          5.27753687    0.13578001   -1.22738194
 H          5.64741707    0.75148398    0.38169101
