33
wb97x-d4 ma-def2-tzvp(-f) cpcm(dmso) E: -955.170270371317, G: -954.94948353
 C         -2.56289697   -0.37021300   -0.44648001
 C         -1.47705603   -0.46422300   -1.51199698
 O         -1.84184206   -1.39012206   -2.52696300
 C         -0.12170400   -0.80150098   -0.88388199
 O          0.92638397   -0.37281600   -1.77340698
 C         -0.04899700   -0.22738200    0.48545399
 C         -0.98589700    0.82638901    0.95523697
 C         -0.50687498    2.23172903    0.55332500
 O          0.77980399    2.51723194    1.07607496
 O         -2.32952309    0.69467503    0.44017601
 O          0.79483199   -0.74131203    1.41306698
 O         -2.63025689   -1.62028694    0.19607300
 H         -1.03849995    0.77459699    2.04776812
 H         -3.52950907   -0.14398500   -0.91150898
 H         -0.05240600   -1.89456296   -0.79690701
 C         -3.77782297   -1.76135695    1.02727604
 H         -1.99021101   -2.24206591   -2.09617090
 H         -0.51789802    2.31064701   -0.54081601
 H         -1.19798601    2.97639489    0.95758402
 H          1.72510695   -0.84991097    1.03755701
 H          1.56426895    0.15937200   -1.25276303
 H          1.43396103    1.96620297    0.60404402
 H         -4.69386292   -1.59122300    0.44963101
 H         -3.74304795   -1.05985498    1.86560202
 H         -3.77285504   -2.78248501    1.40825295
 H         -1.40754497    0.50974602   -2.00013399
 O          2.77042794    1.11648703   -0.36640099
 O          3.26990199   -0.81147802    0.64352000
 C          5.07284498    0.61864799   -0.00674500
 C          3.59723401    0.28163299    0.10728200
 H          5.35288382    0.61586899   -1.06359196
 H          5.68938494   -0.10017000    0.53180701
 H          5.24965477    1.62532902    0.37803701
