33
wb97x-d4 ma-def2-tzvp(-f) cpcm(dmso) E: -955.169539661557, G: -954.94941276
 C         -2.10270309   -0.60832000   -0.34650999
 C         -0.92075300   -1.53516805   -0.58384699
 O         -1.07936394   -2.69783306    0.21707000
 C          0.37259701   -0.78592002   -0.24396700
 O          0.62478602    0.13968401   -1.31513500
 C          0.23503099   -0.11295500    1.08077502
 C         -1.05798197    0.53279197    1.47730398
 C         -1.17603803    1.98796296    1.01025999
 O         -2.38574791    2.58264399    1.47715998
 O         -2.18634701   -0.22554199    1.02134395
 O          1.32381594    0.43057001    1.67727602
 O         -3.28868294   -1.25096202   -0.68642002
 H         -1.14178598    0.53519100    2.56954694
 H         -1.96874201    0.28416499   -0.97299403
 H          1.19220698   -1.51472604   -0.20538600
 C         -4.39726019   -0.35819900   -0.79001200
 H         -0.37270001   -3.31146598   -0.01455200
 H         -0.35130101    2.56205201    1.43475604
 H         -1.11021602    2.05053592   -0.08054900
 H          2.18063498    0.12106200    1.23788500
 H          1.58693397    0.36244500   -1.27926898
 H         -3.10864997    2.00950098    1.19228601
 H         -4.17757797    0.44300199   -1.50480700
 H         -4.64379501    0.07981000    0.18090600
 H         -5.24287224   -0.94421101   -1.14881694
 H         -0.90037698   -1.79446304   -1.64755595
 O          3.62045097   -0.26380199    0.72585899
 O          3.27365208    0.63062203   -1.29560804
 C          5.51771879    0.11743000   -0.65937102
 C          4.01974297    0.15945099   -0.39867100
 H          5.96611500    1.01517105   -0.22309400
 H          5.73100090    0.11058500   -1.72835100
 H          5.96820307   -0.75111097   -0.17751200
