33
wb97x-d4 ma-def2-tzvp(-f) cpcm(dmso) E: -955.169153087276, G: -954.94925863
 C         -2.30702591   -0.56325400   -0.58152801
 C         -1.30627596   -0.54386598   -1.73257196
 O         -1.32026803   -1.78587306   -2.42235589
 C          0.09475100   -0.15752301   -1.26618004
 O          0.84812599    0.18336000   -2.43075895
 C          0.02746400    0.96272600   -0.26657000
 C         -1.11905396    1.04468000    0.69984800
 C         -1.32213104    2.45333791    1.26038003
 O         -0.29949200    2.81484699    2.18150902
 O         -2.35066605    0.68540299    0.07253600
 O          1.19400203    1.42632306    0.26409799
 O         -1.94470096   -1.61250305    0.27621800
 H         -0.93322498    0.37117800    1.55216205
 H         -3.32065892   -0.72270101   -0.96512800
 H          0.55772102   -1.03787899   -0.78728497
 C         -2.93710494   -1.90727496    1.25810897
 H         -1.15653896   -2.47767091   -1.76773202
 H         -1.37760997    3.17073798    0.43305200
 H         -2.26742291    2.47632003    1.80637705
 H          2.00094604    1.08907998   -0.24173500
 H          1.78508496    0.27304301   -2.15946388
 H          0.54466701    2.66075706    1.73369205
 H         -3.05981803   -1.07250595    1.95350504
 H         -2.59423304   -2.78638506    1.80226195
 H         -3.89701891   -2.12458205    0.77723199
 H         -1.64415097    0.20942000   -2.44718409
 O          3.18697309    0.57308102   -1.13033104
 O          4.59317303   -1.12602901   -1.46327496
 C          4.07846212   -0.51083797    0.79660797
 C          3.95880198   -0.36419699   -0.71437800
 H          4.76077795   -1.31761503    1.06122398
 H          3.09154391   -0.71202099    1.22118604
 H          4.43490314    0.42842400    1.22647905
