33
wb97x-d4 ma-def2-tzvp(-f) cpcm(dmso) E: -955.169548997511, G: -954.9490888
 C         -2.46655107    0.01775000   -0.61251903
 C         -1.85670102   -0.62943900   -1.86219001
 O         -2.86600208   -1.27733803   -2.62105107
 C         -0.70202202   -1.57098198   -1.47300100
 O         -0.05080500   -2.08871007   -2.62512112
 C          0.24327600   -0.80807298   -0.58524299
 C         -0.42551601   -0.20825601    0.61561298
 C          0.45038700    0.65460902    1.51442599
 O          1.47628498   -0.09917900    2.13992596
 O         -1.49945700    0.66922498    0.17539200
 O          1.15506697   -0.09288700   -1.29861701
 O         -3.13389206   -1.00419700    0.08698300
 H         -0.85873997   -1.01761603    1.21185994
 H         -3.18026209    0.79818201   -0.89991099
 H         -1.12073505   -2.41800094   -0.92102301
 C         -3.94126797   -0.52212602    1.15813005
 H         -3.35015392   -1.85317600   -2.01399708
 H          0.86984301    1.48444903    0.93583298
 H         -0.18351100    1.07767105    2.29708695
 H          1.97094703    0.14686100   -0.74079001
 H          0.66947299   -1.47299302   -2.82268095
 H          2.22597504   -0.12210300    1.51216996
 H         -4.64910889    0.23137200    0.79542899
 H         -3.32394409   -0.08725900    1.94878602
 H         -4.48886013   -1.37736297    1.55258203
 H         -1.45404601    0.16746600   -2.49221206
 O          3.25669098    0.31273401    0.12117700
 O          3.49961495    2.35794711   -0.74489498
 C          4.80479813    1.77068901    1.18079603
 C          3.78217101    1.48356605    0.09219600
 H          5.24786520    2.75831199    1.05812001
 H          5.58688211    1.00832295    1.16161096
 H          4.31229782    1.71054006    2.15513706
