33
wb97x-d4 ma-def2-tzvp(-f) cpcm(dmso) E: -955.16931153769, G: -954.9490743
 C         -2.24897504   -0.58390802   -0.59267402
 C         -1.24175203   -0.55550200   -1.73814499
 O         -1.22509301   -1.80640304   -2.41114998
 C          0.14755601   -0.13373700   -1.26783001
 O          0.90228200    0.21083300   -2.42979002
 C          0.04781300    0.99906802   -0.28455099
 C         -1.10307002    1.06039298    0.67863297
 C         -1.34185398    2.46873808    1.22550094
 O         -0.32846099    2.86943293    2.13990307
 O         -2.32354212    0.66901100    0.04878200
 O          1.19817603    1.50378394    0.23963000
 O         -1.87006104   -1.61718595    0.27692899
 H         -0.90741599    0.39682499    1.53638196
 H         -3.25659299   -0.76850897   -0.98181301
 H          0.62530899   -0.99935800   -0.77679402
 C         -2.86035991   -1.91546202    1.25958300
 H         -1.06024003   -2.48586297   -1.74421799
 H         -1.41864896    3.17478609    0.38987800
 H         -2.28702593    2.47082806    1.77265894
 H          2.02279592    1.17478204   -0.24858899
 H          1.83270502    0.31783399   -2.14774394
 H          0.51829201    2.72599292    1.69332802
 H         -2.99668503   -1.07431996    1.94481802
 H         -2.50718594   -2.78355503    1.81501102
 H         -3.81595898   -2.15137792    0.77852100
 H         -1.59096897    0.18189800   -2.46401596
 O          4.67148781   -1.02383995   -1.38191295
 O          3.22495508    0.64879602   -1.09342098
 C          3.84305501   -0.61580002    0.83099401
 C          3.93815398   -0.32761899   -0.66111100
 H          4.06159401    0.29238701    1.39749897
 H          4.53045082   -1.40859795    1.12367499
 H          2.81926203   -0.91434997    1.07203400
