33
wb97x-d4 ma-def2-tzvp(-f) cpcm(dmso) E: -955.170122511386, G: -954.94905389
 C         -2.13884497   -0.50969398   -0.64187199
 C         -1.09662104   -0.52385098   -1.75429797
 O         -1.08789396   -1.78468704   -2.40863895
 C          0.28634501   -0.13358299   -1.24156404
 O          1.09050095    0.17864400   -2.38072491
 C          0.20261499    1.00357199   -0.26036799
 C         -0.99996400    1.15061104    0.62610900
 C         -1.21417201    2.59009504    1.06901205
 O         -2.29329491    2.70204592    1.99306095
 O         -2.20418191    0.76208001   -0.04036100
 O          1.34709501    1.40894306    0.34845400
 O         -1.80766404   -1.52614403    0.26549801
 H         -0.87743801    0.52891201    1.52771294
 H         -3.13803911   -0.68475199   -1.05680895
 H          0.72201502   -1.01071000   -0.73261499
 C         -2.83627391   -1.78022897    1.22081006
 H         -0.95095998   -2.45710707   -1.72851396
 H         -0.32002601    2.94964910    1.57793403
 H         -1.39416099    3.21275902    0.18459800
 H          2.16354799    1.05367804   -0.12152400
 H          2.01446605    0.24951001   -2.06556296
 H         -3.07810712    2.34473300    1.55994594
 H         -2.51499009   -2.63510489    1.81500399
 H         -3.77773404   -2.01826406    0.71342200
 H         -2.98442292   -0.91599000    1.87453401
 H         -1.40532100    0.21020000   -2.50167298
 O          4.75499392   -1.24062300   -1.27472401
 O          3.38434291    0.49252900   -0.97000498
 C          4.03782988   -0.74303102    0.95885700
 C          4.07855892   -0.49778199   -0.54352498
 H          3.01293302   -0.98319000    1.25481200
 H          4.32616377    0.16779400    1.48906398
 H          4.69869900   -1.56101501    1.24394703
