33
wb97x-d4 ma-def2-tzvp(-f) cpcm(dmso) E: -955.168696586253, G: -954.94892615
 C         -2.25964308   -0.51648802   -0.59854198
 C         -1.12259901   -0.27090600   -1.58283901
 O         -1.01950598   -1.33462298   -2.51993990
 C          0.18929300   -0.01631100   -0.84743798
 O          1.06043100    0.70970601   -1.72793102
 C         -0.08333600    0.68326801    0.43481299
 C         -1.40433800    1.25172198    0.82677001
 C         -1.47754896    2.75127196    0.53554201
 O         -2.66911411    3.36215496    1.02736294
 O         -2.52483511    0.62610400    0.17303100
 O          0.88964897    0.82132101    1.36708295
 O         -1.92358303   -1.64580500    0.16971800
 H         -1.52793205    1.10934496    1.90993905
 H         -3.19207501   -0.70846897   -1.14230597
 H          0.65403402   -0.98919803   -0.63000000
 C         -3.00940704   -2.13341904    0.95262802
 H         -0.89559400   -2.14895511   -2.01526690
 H         -0.59135801    3.23048091    0.96661198
 H         -1.46983397    2.90690088   -0.54568303
 H          1.73877001    0.35037699    1.09413302
 H          1.99232101    0.50817698   -1.46681297
 H         -2.63705897    3.34266210    1.99100900
 H         -3.87251306   -2.35863495    0.31543499
 H         -3.30260992   -1.40445197    1.71342003
 H         -2.66777611   -3.04741096    1.43812394
 H         -1.37820494    0.62021202   -2.16079497
 O          3.10322905   -0.45632800    0.97130400
 O          3.60984111    0.12399000   -1.12859797
 C          5.23343420   -1.10001695    0.11200300
 C          3.88128209   -0.41610700   -0.02482600
 H          5.99823618   -0.54611599   -0.43425399
 H          5.15987682   -2.09720492   -0.33232000
 H          5.51847219   -1.20724702    1.15862501
