33
wb97x-d4 ma-def2-tzvp(-f) cpcm(dmso) E: -955.169828548228, G: -954.9488457
 C         -2.06833601   -0.68324500   -0.38897499
 C         -1.23039901   -1.95371699   -0.37887099
 O         -1.71072197   -2.89206505    0.57424098
 C          0.21551199   -1.60235798   -0.03537700
 O          0.81775099   -1.12180400   -1.25375295
 C          0.25028801   -0.64304799    1.09717405
 C         -0.86415702    0.28799301    1.46034396
 C         -0.52677703    1.75300598    1.14915097
 O         -0.18331000    1.98833501   -0.20879300
 O         -2.12235999   -0.09231200    0.89832401
 O          1.36214495   -0.49747300    1.85926294
 O         -3.37273192   -1.03476405   -0.74065298
 H         -1.00993395    0.24286599    2.54875398
 H         -1.65296805    0.02932700   -1.11273098
 H          0.73531300   -2.52193999    0.26492500
 C         -4.20716476    0.08940600   -1.01860297
 H         -2.67055202   -2.93547702    0.47955301
 H         -1.40591800    2.36308599    1.37317801
 H          0.28663400    2.06231189    1.81554496
 H          2.20454192   -0.49660999    1.30279803
 H          1.37670100   -0.34292701   -1.05056202
 H          0.72908098    1.67648005   -0.34708801
 H         -5.15543079   -0.30294800   -1.38493705
 H         -3.75020194    0.72006398   -1.78933406
 H         -4.38086796    0.68391198   -0.11836600
 H         -1.25101805   -2.38212705   -1.38701403
 O          3.59160995   -0.23922500    0.57778198
 O          2.42416501    1.05994403   -0.81326801
 C          4.78538895    1.38349700   -0.70415300
 C          3.50790405    0.67715901   -0.28569201
 H          4.74292183    1.66037405   -1.75810301
 H          5.65911007    0.76213098   -0.50838500
 H          4.87378407    2.30214596   -0.11637700
