33
wb97x-d4 ma-def2-tzvp(-f) cpcm(dmso) E: -955.171085102002, G: -954.9488438999999
 C         -2.27200508   -0.49592501   -0.84963202
 C         -0.96115297   -1.17285395   -1.23311496
 O         -1.23437500   -2.45479608   -1.77860105
 C         -0.02229900   -1.26655698   -0.03207400
 O          1.20769000   -1.85711205   -0.40709400
 C          0.09897100    0.10128300    0.57967103
 C         -1.19154596    0.83937103    0.80971199
 C         -0.97801101    2.31478500    1.14128602
 O         -0.44367701    2.49117994    2.44793296
 O         -2.00900888    0.80787301   -0.36700201
 O          1.04149199    0.32172701    1.53619504
 O         -2.93506789   -1.28861296    0.09343000
 H         -1.74535203    0.38322300    1.64632905
 H         -2.90586305   -0.34957099   -1.73202395
 H         -0.47657999   -1.94830203    0.70343602
 C         -4.25464201   -0.83055401    0.37609300
 H         -0.37794700   -2.89064598   -1.88202202
 H         -0.32685500    2.77004600    0.38528499
 H         -1.94572496    2.81967807    1.11665595
 H          1.97627497    0.11709900    1.20731103
 H          1.80884802   -1.15958095   -0.78229201
 H          0.35879701    1.94939101    2.48313498
 H         -4.83669996   -0.74359399   -0.54844898
 H         -4.23714304    0.13817200    0.88343000
 H         -4.71588087   -1.57251000    1.02721798
 H         -0.48701599   -0.53524500   -1.98980296
 O          3.50457907    0.14851700    0.76770800
 O          2.99659801   -0.16188100   -1.38675404
 C          5.15031910    0.72084802   -0.86232197
 C          3.78254604    0.18843600   -0.46584901
 H          5.87776613    0.55998898   -0.06643900
 H          5.06131601    1.79808402   -1.03264499
 H          5.49165010    0.25803801   -1.78870904
