33
wb97x-d4 ma-def2-tzvp(-f) cpcm(dmso) E: -955.171263800465, G: -954.94879855
 C         -1.43822098   -0.69059801   -0.51234502
 C          0.04179700   -0.69088000   -0.10836100
 O          0.53432900   -2.00974011   -0.08820300
 C          0.21759400    0.01408500    1.24707305
 O          1.57901597    0.22916600    1.57961297
 C         -0.48349899    1.34487605    1.17853904
 C         -1.88586605    1.32608604    0.67928702
 C         -2.46133709    2.71117711    0.41633600
 O         -2.45391607    3.51405096    1.59174204
 O         -1.95209503    0.62504601   -0.59031200
 O          0.29154500    2.38992000    0.75312197
 O         -2.15182900   -1.48229003    0.39873701
 H         -2.51559210    0.79523301    1.39983106
 H         -1.54355800   -1.09852195   -1.52480996
 H         -0.25407699   -0.61054301    2.01418090
 C         -3.50212312   -1.70582294    0.00482300
 H          1.41826296   -2.01744008   -0.54975301
 H         -1.90155196    3.19305396   -0.39109600
 H         -3.50240803    2.61228490    0.10483800
 H          1.20602000    2.13004398    0.96754402
 H          2.19250607   -0.11771100    0.88168401
 H         -1.53314602    3.70723605    1.80628097
 H         -4.08304501   -0.77943599    0.03796300
 H         -3.92383194   -2.42302895    0.70895803
 H         -3.54333210   -2.12077093   -1.00898802
 H          0.56708598   -0.09719400   -0.86819500
 O          3.54221606   -0.39479601   -0.09147500
 O          2.80590200   -2.04961205   -1.40361094
 C          5.01628208   -1.24977398   -1.76638806
 C          3.68414402   -1.22142601   -1.03155303
 H          4.85111618   -1.32457995   -2.84279704
 H          5.56772614   -2.14094806   -1.45301902
 H          5.61388493   -0.36714301   -1.53964806
