33
wb97x-d4 ma-def2-tzvp(-f) cpcm(dmso) E: -955.171087194961, G: -954.94876518
 C         -2.26042104   -0.51858002   -0.83973801
 C         -0.94971198   -1.20837796   -1.20064604
 O         -1.22310102   -2.49958396   -1.72370505
 C         -0.01914800   -1.28242898    0.00828100
 O          1.21160305   -1.88405800   -0.34673101
 C          0.10253900    0.09579600    0.59498799
 C         -1.18693805    0.84053701    0.80572897
 C         -0.97039002    2.32024193    1.11482596
 O         -0.44028300    2.51390600    2.42089200
 O         -1.99548602    0.79205102   -0.37716699
 O          1.04868305    0.33463299    1.54305005
 O         -2.93567491   -1.29170501    0.11092200
 H         -1.74969995    0.40016100    1.64476597
 H         -2.88599896   -0.38373500   -1.72985303
 H         -0.47983101   -1.94994295    0.75284702
 C         -4.25372601   -0.81928003    0.37715301
 H         -0.36768299   -2.94160509   -1.80742598
 H         -0.31442001    2.76126099    0.35455400
 H         -1.93587399    2.82863593    1.07846403
 H          1.98413205    0.14829201    1.20200706
 H          1.80887496   -1.20062399   -0.75156599
 H          0.36160100    1.97159505    2.46472502
 H         -4.82901716   -0.74369800   -0.55259502
 H         -4.23224497    0.15770300    0.86816198
 H         -4.72443485   -1.54684198    1.03766298
 H         -0.46774301   -0.58695000   -1.96586394
 O          2.97953200   -0.20376000   -1.40043104
 O          3.49603605    0.21000101    0.73499501
 C          5.11481810    0.76447201   -0.91633099
 C          3.75857306    0.21410200   -0.50351399
 H          5.20342112    1.79945695   -0.57779700
 H          5.24960709    0.71953499   -1.99645197
 H          5.90240812    0.18879300   -0.42421001
