33
wb97x-d4 ma-def2-tzvp(-f) cpcm(dmso) E: -955.173009695849, G: -954.95181055
 C         -2.39117002   -0.38492799   -0.71415401
 C         -1.20637298   -0.91795498   -1.50999105
 O         -1.60346997   -1.96976304   -2.37948704
 C         -0.07656700   -1.34084702   -0.57257497
 O          1.16138196   -1.47556901   -1.27902699
 C          0.02311000   -0.40784401    0.58370900
 C         -0.97903001    0.64880002    0.92695397
 C         -0.29745799    2.01266909    1.05891204
 O          0.37976199    2.41606092   -0.11974900
 O         -2.03230405    0.78942198   -0.03052700
 O          0.88489997   -0.69652998    1.59446502
 O         -2.82756495   -1.40916598    0.14267799
 H         -1.41960502    0.41444600    1.91043901
 H         -3.20271111   -0.08682800   -1.38812900
 H         -0.31024101   -2.34891200   -0.19788501
 C         -4.06387711   -1.11528206    0.78665698
 H         -1.97811198   -2.67166305   -1.83192897
 H         -1.05787599    2.76946497    1.26871002
 H          0.38811499    1.96505797    1.91252697
 H          1.84363306   -0.61336303    1.29061794
 H          1.64810002   -0.62893498   -1.17616296
 H          1.12669504    1.80792499   -0.28188801
 H         -4.34268522   -2.00039911    1.35811496
 H         -4.84087086   -0.89877403    0.04481400
 H         -3.96029210   -0.26233801    1.46344995
 H         -0.85344100   -0.10841300   -2.15245008
 O          3.36495399   -0.24211100    0.97523099
 O          2.61760306    0.83993798   -0.82995498
 C          4.87697506    1.21152699   -0.17093800
 C          3.52118206    0.55219197    0.01005100
 H          4.75605392    2.29676509   -0.12517200
 H          5.26832724    0.96617699   -1.16115403
 H          5.58285618    0.88917398    0.59384400
