33
wb97x-d4 ma-def2-tzvp(-f) cpcm(dmso) E: -955.169281679214, G: -954.94864826
 C         -2.20705199   -0.61653900   -0.54887998
 C         -1.23967004   -0.55083299   -1.72712505
 O         -1.21917605   -1.79274404   -2.41521907
 C          0.15412000   -0.10377000   -1.29457498
 O          0.87358099    0.24413601   -2.47738504
 C          0.04820200    1.03469801   -0.32070199
 C         -1.05462801    1.04521406    0.69610298
 C         -1.31316304    2.43550706    1.27860999
 O         -0.28002200    2.84472489    2.16752696
 O         -2.29106688    0.62259299    0.11710100
 O          1.19115901    1.62104702    0.12903599
 O         -1.77521896   -1.65221000    0.29204300
 H         -0.80378503    0.37607899    1.53559601
 H         -3.22348094   -0.81708699   -0.90620100
 H          0.65758598   -0.95950502   -0.81165802
 C         -2.72885108   -1.99623799    1.29557300
 H         -1.01349699   -2.47688794   -1.76482296
 H         -1.43733704    3.15666699    0.46176901
 H         -2.23811603    2.40180397    1.85809004
 H          2.01178598    1.29951096   -0.37063000
 H          1.80586803    0.38150999   -2.22119403
 H          0.55282003    2.74430394    1.68490303
 H         -2.33783388   -2.86815095    1.81880701
 H         -3.69255590   -2.24330711    0.83674699
 H         -2.86426997   -1.17417395    2.00392509
 H         -1.62767005    0.18624599   -2.43352890
 O          3.22149897    0.70803398   -1.16034698
 O          4.61732817   -1.02148902   -1.34192002
 C          3.64026499   -0.58639199    0.80149603
 C          3.85937691   -0.29645699   -0.67696899
 H          3.83494711    0.31308901    1.39015496
 H          4.28415108   -1.39698398    1.14091504
 H          2.59470701   -0.86240101    0.96275699
