33
wb97x-d4 ma-def2-tzvp(-f) cpcm(dmso) E: -955.169510342521, G: -954.94848743
 C         -2.45941901   -0.03462400   -0.64745098
 C         -1.82379603   -0.80177498   -1.81402397
 O         -2.81898308   -1.51894999   -2.52756810
 C         -0.68459702   -1.70406401   -1.30870998
 O         -0.01208300   -2.33626294   -2.38911605
 C          0.24474800   -0.85615098   -0.48335800
 C         -0.44752601   -0.14424200    0.64096302
 C          0.41505700    0.80011201    1.46807301
 O          1.43861496    0.11106600    2.16857290
 O         -1.51108503    0.68729699    0.09925100
 O          1.16781199   -0.21287000   -1.24593794
 O         -3.15085697   -0.98167503    0.12947100
 H         -0.89649802   -0.89173102    1.30289900
 H         -3.16208291    0.71592599   -1.02771604
 H         -1.11890805   -2.48935294   -0.68232203
 C         -4.00494719   -0.39188701    1.10582101
 H         -3.33400011   -2.01000905   -1.87312400
 H          0.83700001    1.57614398    0.82023501
 H         -0.22859100    1.28869104    2.20334196
 H          1.97484398    0.08733900   -0.70117301
 H          0.72498298   -1.75317597   -2.62054491
 H          2.18927002    0.03267800    1.54740596
 H         -4.70061588    0.30952799    0.63139200
 H         -3.42317796    0.13497600    1.86723697
 H         -4.56483793   -1.20217204    1.57187200
 H         -1.40317094   -0.07048500   -2.50905609
 O          3.24800396    0.33830500    0.13953701
 O          3.47368097    2.33202791   -0.84245402
 C          4.86771822    1.82254601    1.04204798
 C          3.78734589    1.49735999    0.02283100
 H          5.62565804    1.03605700    1.03950906
 H          4.41871405    1.84338403    2.03888011
 H          5.33172512    2.78599000    0.83321398
