33
wb97x-d4 ma-def2-tzvp(-f) cpcm(dmso) E: -955.168571384541, G: -954.94823406
 C         -2.44516611   -0.48256800   -0.34273800
 C         -1.33247602   -0.18426700   -1.35042906
 O         -1.31756496   -1.17126405   -2.37201309
 C          0.03050200   -0.02893000   -0.66301000
 O          0.79628497    0.95375198   -1.39794004
 C         -0.18911999    0.37169701    0.74863601
 C         -1.39057899    1.18156099    1.07381105
 C         -1.37286699    2.58921289    0.42156300
 O         -0.07176500    3.15468907    0.36031300
 O         -2.60356808    0.52884603    0.62687498
 O          0.82577199    0.38887700    1.64088500
 O         -2.16084290   -1.74183702    0.22037099
 H         -1.46831596    1.28105295    2.15945411
 H         -3.40973091   -0.53198302   -0.86142600
 H          0.56130397   -0.98672903   -0.70917398
 C         -3.25374007   -2.29048300    0.94968599
 H         -1.24889302   -2.03024292   -1.93473399
 H         -1.80683303    2.51246500   -0.58076602
 H         -1.99360299    3.27316999    1.00435495
 H          1.65196204   -0.05670900    1.26670003
 H          1.75583398    0.78818202   -1.20087695
 H          0.43890801    2.58754396   -0.24367900
 H         -3.48087811   -1.68439901    1.83134604
 H         -2.95744395   -3.29130507    1.26422501
 H         -4.14548302   -2.35551810    0.31516600
 H         -1.57729495    0.75555903   -1.84770000
 O          3.04012203   -0.72770703    0.90096200
 O          3.38006902    0.54711998   -0.90505701
 C          5.22581816   -0.69382501   -0.06484200
 C          3.77079606   -0.25433201   -0.01557600
 H          5.87220097    0.17796700   -0.18344700
 H          5.36956882   -1.33206403   -0.94119698
 H          5.50702477   -1.24753404    0.83025599
