33
wb97x-d4 ma-def2-tzvp(-f) cpcm(dmso) E: -955.170096729489, G: -954.94821209
 C         -1.55021095   -0.71518499   -0.65140498
 C         -0.12009000   -1.06722701   -0.23027000
 O          0.10535600   -2.45347404   -0.42736101
 C          0.11177800   -0.60758299    1.22206104
 O          1.38101006   -0.96870703    1.72700500
 C         -0.13882400    0.87442601    1.20157003
 C         -1.53370905    1.21450603    0.77718502
 C         -1.80375302    2.70808196    0.66814202
 O         -1.63987100    3.36148000    1.92260599
 O         -1.77790701    0.67646497   -0.55339402
 O          0.82820499    1.67985499    0.68416202
 O         -2.44313407   -1.45881999    0.13409901
 H         -2.24459696    0.76046002    1.47428298
 H         -1.69779205   -0.95468700   -1.71102405
 H         -0.64930898   -1.07486403    1.85455096
 C         -3.79480791   -1.34449804   -0.30109999
 H          1.06410301   -2.55636096   -0.50976402
 H         -1.14699602    3.14469409   -0.09003600
 H         -2.83985901    2.86405802    0.36313900
 H          1.67445302    1.19390595    0.48458499
 H          2.00156403   -1.12464404    0.96965897
 H         -0.70691502    3.30703211    2.16257691
 H         -3.88254595   -1.61499906   -1.35980594
 H         -4.17123985   -0.32801199   -0.15626401
 H         -4.38215590   -2.03772712    0.30057800
 H          0.54257399   -0.49459299   -0.88647401
 O          3.10802102    0.75483298   -0.31952500
 O          2.96374893   -1.47593701   -0.34789199
 C          4.60135603   -0.44996399   -1.74274802
 C          3.46565294   -0.37939900   -0.73432797
 H          4.74027777    0.50585598   -2.24754405
 H          4.41413212   -1.24002695   -2.47139406
 H          5.52147913   -0.69894201   -1.20587599
