33
wb97x-d4 ma-def2-tzvp(-f) cpcm(dmso) E: -955.170144086402, G: -954.94801357
 C         -1.79057205   -0.65802699   -0.78555000
 C         -0.39569801   -1.26346004   -0.56670803
 O         -0.43362799   -2.66359091   -0.80052799
 C          0.14027600   -0.89556700    0.83199799
 O          1.42490804   -1.42537904    1.07300603
 C          0.04358000    0.60448498    0.96012300
 C         -1.35165596    1.10427904    0.76782900
 C         -1.51648605    2.61534309    0.84110200
 O         -1.19355404    3.12469912    2.13129497
 O         -1.82249606    0.73070800   -0.55909699
 O          1.00002503    1.37985003    0.38864800
 O         -2.67057800   -1.35945594    0.05905700
 H         -2.00603008    0.63153797    1.50872004
 H         -2.09702706   -0.78850597   -1.82965600
 H         -0.53205001   -1.33774900    1.57513201
 C         -4.04479599   -1.09743702   -0.21181101
 H         -1.15695798   -3.01846409   -0.26631501
 H         -0.84026402    3.09654307    0.13434599
 H         -2.54554510    2.86913705    0.56604302
 H          1.91835701    0.97951698    0.39193100
 H          2.02023792   -1.24584901    0.30172801
 H         -1.86202896    2.81423306    2.75317192
 H         -4.29817390   -0.05830000    0.01528100
 H         -4.62676811   -1.76080501    0.42724299
 H         -4.27508688   -1.30600798   -1.26258898
 H          0.27564201   -0.84248000   -1.31888604
 O          3.53766799    0.81360000    0.13595900
 O          3.16280198   -1.09894896   -0.95220500
 C          5.25463104    0.01397000   -1.30664206
 C          3.87921596   -0.10067100   -0.66724801
 H          6.01114082   -0.19243900   -0.54429501
 H          5.41762400    1.03146303   -1.66665196
 H          5.37328577   -0.69622701   -2.12443209
