33
wb97x-d4 ma-def2-tzvp(-f) cpcm(dmso) E: -955.172951291204, G: -954.95166771
 C         -2.39837503   -0.40137100   -0.69562900
 C         -1.22323704   -0.93426698   -1.50569499
 O         -1.62921500   -1.99018002   -2.36582589
 C         -0.07923700   -1.35067594   -0.58308297
 O          1.14884901   -1.48219001   -1.30706298
 C          0.03148500   -0.41336700    0.56857401
 C         -0.96044397    0.65241301    0.91275299
 C         -0.27658299    2.01887894    1.00300598
 O          0.37207100    2.39916492   -0.19917201
 O         -2.03497100    0.77734399   -0.02276700
 O          0.90404302   -0.69588101    1.57229996
 O         -2.82139206   -1.42218196    0.17199799
 H         -1.37893105    0.43745601    1.91019297
 H         -3.21977997   -0.10907400   -1.36022997
 H         -0.30521500   -2.35783505   -0.20100300
 C         -4.04847813   -1.12467301    0.83175200
 H         -1.98686397   -2.69452596   -1.81014800
 H         -1.03285694    2.77900910    1.21592605
 H          0.42913300    1.98892403    1.84082794
 H          1.85619199   -0.65785098    1.24666297
 H          1.64731801   -0.64345998   -1.18819296
 H          1.13230002    1.80534506   -0.34911400
 H         -3.93324590   -0.27303800    1.50826097
 H         -4.32403421   -2.00939488    1.40538800
 H         -4.83372116   -0.90367198    0.09993300
 H         -0.88142699   -0.12572899   -2.15531301
 O          3.39303207   -0.32409599    0.90735197
 O          2.62437606    0.81091201   -0.85531503
 C          4.84001589    1.28146303   -0.11617000
 C          3.52427506    0.53103501   -0.00843300
 H          5.26913881    1.11977804   -1.10789001
 H          5.54679918    0.95926702    0.64783198
 H          4.64897490    2.35247207   -0.01171300
