33
wb97x-d4 ma-def2-tzvp(-f) cpcm(dmso) E: -955.168946185267, G: -954.94783231
 C         -2.26220012   -0.50950098   -0.52973002
 C         -1.03126800   -0.28320700   -1.40111399
 O         -0.85406798   -1.35929799   -2.31181598
 C          0.21694100   -0.02094400   -0.55395901
 O          1.04426706    0.92733097   -1.28207302
 C         -0.16853601    0.46815500    0.79478902
 C         -1.46239698    1.17158902    1.03234696
 C         -1.36893904    2.66689897    0.71233201
 O         -0.97940999    2.93099689   -0.62925601
 O         -2.54586911    0.60985398    0.27205899
 O          0.77933002    0.69419700    1.73604000
 O         -2.05115604   -1.69142401    0.20287199
 H         -1.71553099    1.08659196    2.09732604
 H         -3.14785910   -0.62788999   -1.16439903
 H          0.78378600   -0.95422602   -0.45746100
 C         -3.22992110   -2.18119502    0.83512503
 H         -0.83797002   -2.17299199   -1.79062998
 H         -2.34925294    3.12852597    0.85354197
 H         -0.66675597    3.11866689    1.42361796
 H          1.70065105    0.53471899    1.34874499
 H          1.90701103    0.92854297   -0.82215601
 H         -0.14756000    2.46076202   -0.81226802
 H         -3.57889605   -1.48748004    1.60511005
 H         -2.97253489   -3.13450289    1.29588401
 H         -4.02618313   -2.33491993    0.09785200
 H         -1.22601295    0.60251099   -2.00704288
 O          3.06837296    0.51164299    0.54820299
 O          3.37050295   -1.60804105    1.18830395
 C          4.81351089   -0.71008497   -0.50484902
 C          3.66930199   -0.62002498    0.49399900
 H          5.54783392    0.06966600   -0.28940499
 H          4.42658997   -0.52774900   -1.51093900
 H          5.29422712   -1.68717206   -0.47104999
