33
wb97x-d4 ma-def2-tzvp(-f) cpcm(dmso) E: -955.169158204318, G: -954.94770009
 C         -2.30335593   -0.59277397   -0.57923502
 C         -1.29333997   -0.58375901   -1.72106194
 O         -1.29717398   -1.83417201   -2.39439392
 C          0.10133800   -0.19253200   -1.24182701
 O          0.86770397    0.13856401   -2.40016103
 C          0.02391600    0.93280399   -0.24774601
 C         -1.14938796    1.05250502    0.68396997
 C         -1.36958802    2.48579907    1.17269695
 O         -0.35767901    2.90900493    2.07786107
 O         -2.36654711    0.66848600    0.04612700
 O          1.17975903    1.37329900    0.32187101
 O         -1.93413997   -1.61840999    0.30246601
 H         -0.98646098    0.41721600    1.56956005
 H         -3.31231499   -0.77232301   -0.96759999
 H          0.55851901   -1.07121003   -0.75467199
 C         -2.93119192   -1.90293503    1.28191102
 H         -1.13614905   -2.51595902   -1.72920299
 H         -1.42969596    3.15721107    0.30745399
 H         -2.31861305    2.52437997    1.71231997
 H          2.00069404    1.07708299   -0.19041300
 H          1.79344106    0.26723301   -2.10917807
 H          0.49140099    2.70457101    1.66057503
 H         -2.58340502   -2.76587009    1.84904599
 H         -3.88445997   -2.14175105    0.79744101
 H         -3.06911206   -1.05360305    1.95699096
 H         -1.62502098    0.16053700   -2.44823503
 O          3.18906999    0.61683500   -1.09052801
 O          4.62047386   -1.04911804   -1.47764099
 C          4.11945105   -0.49492899    0.80020702
 C          3.98212910   -0.31675500   -0.70502698
 H          4.82785177   -1.28727102    1.03997505
 H          3.14198399   -0.73668402    1.22623396
 H          4.44990492    0.44453001    1.25021601
