33
wb97x-d4 ma-def2-tzvp(-f) cpcm(dmso) E: -955.169243155046, G: -954.94764577
 C         -2.28697896   -0.55122697   -0.58787602
 C         -1.29026604   -0.50365102   -1.74192405
 O         -1.30087698   -1.73103499   -2.45718408
 C          0.11117400   -0.12062900   -1.27326596
 O          0.85799700    0.24157500   -2.43490291
 C          0.04232400    0.98291701   -0.25343099
 C         -1.10059202    1.03249896    0.72134799
 C         -1.30727100    2.42476296    1.32018197
 O         -0.28124300    2.76794910    2.24386692
 O         -2.33299994    0.68333900    0.09142500
 O          1.20609498    1.43669605    0.28981701
 O         -1.91703498   -1.61662304    0.24631800
 H         -0.90549701    0.33724001    1.55365503
 H         -3.30114102   -0.70785201   -0.97162902
 H          0.57897198   -1.00676000   -0.81012398
 C         -2.90214992   -1.93079901    1.22923601
 H         -1.13417804   -2.43553400   -1.81706095
 H         -1.37189198    3.16283607    0.51174700
 H         -2.24956894    2.42726302    1.87204599
 H          2.01884198    1.13376904   -0.23049700
 H          1.79198694    0.34654000   -2.16167307
 H          0.56082302    2.62219501    1.78909302
 H         -3.86600709   -2.13714194    0.75124002
 H         -3.01880908   -1.11018097    1.94239199
 H         -2.55678892   -2.82121611    1.75316000
 H         -1.63348699    0.26344800   -2.43920207
 O          3.19966888    0.63744402   -1.13066399
 O          4.60207510   -1.06087697   -1.48537505
 C          3.96803093   -0.57240200    0.77464700
 C          3.93741894   -0.33359399   -0.72920698
 H          4.66399622   -1.36984098    1.03188002
 H          2.96434999   -0.84054101    1.11501396
 H          4.25302505    0.34942999    1.28695095
