33
wb97x-d4 ma-def2-tzvp(-f) cpcm(dmso) E: -955.169359885563, G: -954.9475075199999
 C         -2.09319997   -0.73858702   -0.61026502
 C         -0.89435601   -1.64377999   -0.25860599
 O         -1.07453406   -2.31792498    0.97990501
 C          0.38445699   -0.81957698   -0.16231599
 O          0.65562701   -0.30667001   -1.47199905
 C          0.17865799    0.26053101    0.85385501
 C         -1.23188996    0.71462601    1.09452701
 C         -1.34696400    2.15659499    1.56090796
 O         -0.77254802    3.09805393    0.66071498
 O         -1.98978603    0.58005500   -0.12932400
 O          1.16965103    1.16829097    1.06728995
 O         -3.23960495   -1.39013004   -0.11321800
 H         -1.71188402    0.09102100    1.85974598
 H         -2.17207098   -0.64427000   -1.69769895
 H          1.20407903   -1.48418403    0.13959201
 C         -4.46000481   -0.85956502   -0.62342298
 H         -2.00743508   -2.56608105    1.02953100
 H         -2.40424895    2.41204596    1.65304601
 H         -0.88677698    2.23420000    2.55246210
 H          2.07864690    0.79041702    0.82432902
 H          1.62027597   -0.09297900   -1.51506495
 H          0.16137099    2.85478902    0.58368498
 H         -4.48597717   -0.94487900   -1.71544397
 H         -4.58091497    0.18817601   -0.33706999
 H         -5.26842403   -1.44945002   -0.19271500
 H         -0.78645098   -2.37177205   -1.06933200
 O          3.56459403    0.36100000    0.56830198
 O          3.27586102    0.20781299   -1.64534903
 C          5.50073481    0.08229100   -0.78909302
 C          3.99604201    0.21839200   -0.61388397
 H          5.93679285   -0.46872899    0.04504300
 H          5.93756723    1.08543003   -0.79483098
 H          5.74271488   -0.40514800   -1.73330402
