33
wb97x-d4 ma-def2-tzvp(-f) cpcm(dmso) E: -955.169261719102, G: -954.94740432
 C         -1.40555203   -0.74938601   -0.69332302
 C         -0.12437800   -1.42864501   -0.18269600
 O         -0.22418600   -2.83369207   -0.34816501
 C          0.14564800   -1.00903296    1.27530396
 O          1.29154897   -1.63367295    1.82038999
 C          0.13675900    0.49904200    1.31666505
 C         -1.15233696    1.08024096    0.82471001
 C         -1.22399795    2.59910107    0.83428001
 O         -0.29656801    3.23132300   -0.03964200
 O         -1.38060105    0.64742601   -0.54633999
 O          1.24788499    1.20064104    0.96050602
 O         -2.47536302   -1.34424603    0.00307700
 H         -1.97318304    0.70461398    1.44480300
 H         -1.52093995   -0.92714399   -1.76887596
 H         -0.70195699   -1.35318899    1.87647796
 C         -3.75142694   -1.00775194   -0.53336298
 H         -1.07012498   -3.10252690    0.03444500
 H         -2.22082591    2.90755606    0.51136702
 H         -1.07863498    2.93450689    1.86896300
 H          2.08026290    0.63363999    0.82675302
 H          2.09556603   -1.28303099    1.38706994
 H          0.55753303    2.80335212    0.11978100
 H         -3.80121708   -1.26958203   -1.59630597
 H         -3.95738697    0.05953500   -0.41281301
 H         -4.49184513   -1.58502305    0.01993800
 H          0.70832098   -1.10047805   -0.80964100
 O          4.49957991   -1.34983003   -0.96188498
 O          3.29827189   -0.27588901    0.57950902
 C          3.34193492    0.64143002   -1.62249005
 C          3.75452805   -0.42111799   -0.61289400
 H          3.79481792    0.45400900   -2.59546494
 H          3.64445305    1.62662196   -1.25880003
 H          2.25341797    0.65120101   -1.72133899
