33
wb97x-d4 ma-def2-tzvp(-f) cpcm(dmso) E: -955.169366694691, G: -954.94739004
 C         -2.08517599   -0.80195200   -0.55418199
 C         -0.89304000   -1.67865396   -0.12205300
 O         -1.08403206   -2.25084996    1.16538596
 C          0.38541999   -0.84974498   -0.08303300
 O          0.65676099   -0.43519801   -1.42743897
 C          0.17482901    0.30092201    0.85023099
 C         -1.23618102    0.77440202    1.04798901
 C         -1.34899199    2.24903488    1.39818501
 O         -0.76438898    3.11365604    0.43029901
 O         -1.98963106    0.54684901   -0.16430800
 O          1.16854405    1.21544600    1.01484299
 O         -3.24016309   -1.41733599   -0.03133700
 H         -1.72116697    0.21451899    1.85809600
 H         -2.14647508   -0.78460902   -1.64670098
 H          1.20580900   -1.48863399    0.26841199
 C         -4.44956684   -0.92904800   -0.60663098
 H         -2.01665497   -2.49747205    1.22562003
 H         -2.40596890    2.51433706    1.46217799
 H         -0.89587200    2.40367389    2.38400793
 H          2.07763004    0.82345200    0.79452002
 H          1.61387002   -0.19159000   -1.47854805
 H          0.16922900    2.86218095    0.38136801
 H         -5.26781988   -1.48109603   -0.14541900
 H         -4.45445490   -1.10301304   -1.68837702
 H         -4.57322502    0.13876399   -0.40923700
 H         -0.78123403   -2.46960092   -0.87098300
 O          3.56769991    0.38805601    0.56936598
 O          3.25709605    0.16303600   -1.63468003
 C          5.49396515    0.11508700   -0.80727297
 C          3.98931909    0.22071201   -0.61320400
 H          5.73114300   -0.45533100   -1.70538998
 H          5.96729898   -0.33594000    0.06536000
 H          5.89542580    1.12593997   -0.92706400
