33
wb97x-d4 ma-def2-tzvp(-f) cpcm(dmso) E: -955.168142213428, G: -954.94726551
 C         -2.54542398   -0.46854299   -0.53445899
 C         -1.37102699   -0.69690800   -1.47384596
 O         -1.70212197   -1.73145497   -2.38998389
 C         -0.11769900   -1.01192701   -0.67409402
 O          1.00659895   -0.82041401   -1.55729198
 C         -0.08530000   -0.18655901    0.56138402
 C         -1.10116100    0.84750402    0.90373999
 C         -0.59672999    2.26816702    0.59370798
 O          0.54447502    2.60848403    1.35672903
 O         -2.34669089    0.71930802    0.19404100
 O          0.78601700   -0.50334799    1.55472302
 O         -2.69843292   -1.59401500    0.28803700
 H         -1.30464900    0.78337198    1.98079002
 H         -3.46419001   -0.29566199   -1.10710895
 H         -0.14779700   -2.07189703   -0.38496101
 C         -3.88793397   -1.55026197    1.07042301
 H         -0.95812201   -1.82894003   -2.99621606
 H         -0.39655599    2.33851790   -0.48302701
 H         -1.38524997    2.98370695    0.84497797
 H          1.70389104   -0.59949797    1.15309799
 H          1.81023395   -0.87281501   -1.00926805
 H          1.31968498    2.10995007    1.02501500
 H         -4.76759720   -1.43430197    0.42644101
 H         -3.85588503   -0.72743601    1.79026997
 H         -3.95207906   -2.49785304    1.60498500
 H         -1.21417201    0.24447200   -2.01299191
 O          2.96272206    1.59989202    0.41770899
 O          3.09325504   -0.63247502    0.33984500
 C          5.00587416    0.61485201   -0.33360499
 C          3.57651901    0.53762603    0.17582799
 H          5.17504883   -0.13610500   -1.10704303
 H          5.68127918    0.39487600    0.49844700
 H          5.23322105    1.60968697   -0.71629500
