33
wb97x-d4 ma-def2-tzvp(-f) cpcm(dmso) E: -955.168827302945, G: -954.947004
 C         -1.53504503   -0.72272998   -0.69505399
 C         -0.21616000   -1.39444494   -0.30202800
 O         -0.31183001   -2.78884506   -0.54353303
 C          0.11398900   -1.08803999    1.16656303
 O          1.27626300   -1.78420699    1.58388901
 C          0.12796000    0.41128999    1.31795704
 C         -1.17799699    1.02446997    0.90577602
 C         -1.23923898    2.54041791    1.00688696
 O         -0.33952001    3.21988201    0.13838500
 O         -1.46702099    0.66986501   -0.47603601
 O          1.23200297    1.12717605    0.96608901
 O         -2.57720089   -1.32519305    0.02462400
 H         -1.97389102    0.61952698    1.53964496
 H         -1.71328902   -0.83459502   -1.77119398
 H         -0.70606297   -1.47329795    1.77870595
 C         -3.86459208   -0.87164599   -0.38364899
 H          0.46287701   -3.18919897   -0.12703700
 H         -2.24484706    2.87260795    0.74030602
 H         -1.05405796    2.81345892    2.05328608
 H          2.05438399    0.56297398    0.77577400
 H          2.06502509   -1.40698695    1.13762105
 H          0.51884902    2.78412008    0.24648300
 H         -4.59770012   -1.47645104    0.14945599
 H         -3.99498010   -1.00673699   -1.46353698
 H         -4.01063681    0.18254800   -0.13242900
 H          0.56521100   -0.95517302   -0.93530899
 O          3.26321292   -0.34956601    0.47270700
 O          4.42692804   -1.38152504   -1.12472498
 C          3.37308407    0.70132703   -1.66622698
 C          3.72668195   -0.43927801   -0.72316003
 H          3.65477204    1.65515804   -1.21414304
 H          2.29042602    0.71857500   -1.81891596
 H          3.87240601    0.58451700   -2.62717700
