33
wb97x-d4 ma-def2-tzvp(-f) cpcm(dmso) E: -955.170069664932, G: -954.9468098899999
 C         -1.53656304   -0.66491902   -0.58987302
 C         -0.11015100   -1.04677296   -0.19159000
 O          0.15813200   -2.39725709   -0.50019199
 C          0.10018300   -0.70214999    1.29915297
 O          1.34083402   -1.14352298    1.80907094
 C         -0.12530200    0.78267199    1.37293506
 C         -1.50751603    1.18060994    0.95252198
 C         -1.80199003    2.67171407    0.99198997
 O         -1.01999104    3.45305800    0.09550400
 O         -1.75902200    0.71904302   -0.40331599
 O          0.88035500    1.59370303    0.90744799
 O         -2.43397903   -1.45381999    0.14576100
 H         -2.22203207    0.68966299    1.62248397
 H         -1.68624604   -0.83334702   -1.66294503
 H         -0.67665702   -1.19975305    1.88384902
 C         -3.78306890   -1.31698298   -0.28960600
 H          1.12516201   -2.40729308   -0.65680200
 H         -2.84624696    2.83132601    0.71478897
 H         -1.66610801    3.01084805    2.02650595
 H          1.69278598    1.07924604    0.71276700
 H          2.05718493   -0.80562502    1.21993804
 H         -0.10043000    3.17779112    0.21164399
 H         -4.16437483   -0.31280199   -0.08347200
 H         -4.37145185   -2.04901195    0.26346701
 H         -3.86338806   -1.52030206   -1.36386395
 H          0.54858702   -0.40676999   -0.78757799
 O          3.07002997    0.02498700    0.13389100
 O          2.80081296   -1.81408703   -1.11618400
 C          4.44266796   -0.21284799   -1.79333794
 C          3.35365391   -0.71881002   -0.86076999
 H          4.04736423    0.63344401   -2.36261106
 H          4.76205683   -0.98965901   -2.48747301
 H          5.29471016    0.14763200   -1.21410596
