33
wb97x-d4 ma-def2-tzvp(-f) cpcm(dmso) E: -955.168989747463, G: -954.9463449799999
 C         -2.14281392   -0.62432700   -0.41247800
 C         -1.12290204   -0.23508200   -1.47708905
 O         -0.99165601   -1.25586402   -2.45719194
 C          0.22158401    0.15817800   -0.85835499
 O          0.77888602    1.22620797   -1.66724205
 C          0.04024300    0.54881299    0.56502002
 C         -1.25908506    1.08344305    1.07022703
 C         -1.37690997    2.59319305    0.83530599
 O         -1.26084495    2.95564103   -0.53564298
 O         -2.39451909    0.44328800    0.46715999
 O          1.11326301    0.87297702    1.32836998
 O         -1.68186998   -1.78800297    0.22815301
 H         -1.30613005    0.91858900    2.15484190
 H         -3.10970998   -0.82871801   -0.88619697
 H          0.90112698   -0.70018202   -0.91583300
 C         -2.66681600   -2.39933491    1.05758703
 H         -0.75919503   -2.07121491   -1.99342704
 H         -2.35826707    2.93722701    1.17037702
 H         -0.60936201    3.08955789    1.44080806
 H          1.95343995    0.87532902    0.77128398
 H          1.71784496    1.29466903   -1.39608097
 H         -0.43513000    2.58253407   -0.89076197
 H         -2.23473406   -3.32401705    1.43865097
 H         -3.56867790   -2.62889910    0.47876099
 H         -2.93163705   -1.74938297    1.89608800
 H         -1.52560103    0.63571203   -1.99582398
 O          3.12638092    0.96144998   -0.30886799
 O          4.61180496   -0.17341900   -1.52630305
 C          3.86284089   -1.14161301    0.53591597
 C          3.88730407   -0.04788500   -0.52411097
 H          4.07260418   -0.70852202    1.51667500
 H          4.58787584   -1.92342198    0.31369001
 H          2.86066508   -1.57692099    0.57649499
