33
wb97x-d4 ma-def2-tzvp(-f) cpcm(dmso) E: -955.169255628591, G: -954.94559289
 C         -1.44473600   -0.78024000   -0.79681498
 C         -0.19767900   -1.59762704   -0.45875099
 O         -0.39257100   -2.96785402   -0.77833098
 C          0.19078100   -1.38857102    1.00395095
 O          1.47584200   -1.90636694    1.33031905
 C          0.10952000    0.06340300    1.34460402
 C         -0.94332099    0.95519698    0.77284402
 C         -0.52998900    2.42428899    0.78865999
 O          0.61652201    2.71189499    0.00899100
 O         -1.23043704    0.59559900   -0.58223701
 O          0.51653397    0.40949899    2.60308099
 O         -2.50159192   -1.29293597   -0.02781900
 H         -1.86792600    0.87781602    1.37087297
 H         -1.67868400   -0.87091100   -1.86336994
 H         -0.51771897   -1.95325506    1.63041401
 C         -3.77741694   -0.78704202   -0.41475600
 H         -1.17329597   -3.26815891   -0.29450300
 H         -1.35000896    3.01883602    0.37843201
 H         -0.38790801    2.71947408    1.83471298
 H          1.17291498   -0.24944200    2.87717605
 H          2.13723707   -1.47328997    0.73262298
 H          1.37557602    2.16196609    0.29678500
 H         -3.85069609    0.28563401   -0.21628800
 H         -4.52222109   -1.31728601    0.17769100
 H         -3.95585990   -0.97244197   -1.47952199
 H          0.61344898   -1.24307406   -1.09714305
 O          3.20500112   -0.77385402   -0.41121799
 O          2.96301198    1.27692497    0.44873700
 C          3.19450808    1.08916199   -1.91445696
 C          3.11602592    0.48224300   -0.51704597
 H          3.28683805    0.32171500   -2.68257403
 H          4.05191612    1.76464295   -1.96795201
 H          2.29638505    1.68405402   -2.09710908
