27
wb97x-d4 ma-def2-tzvp(-f) cpcm(dmso) E: -727.030786228261, G: -726.83678894
 C         -0.82359701   -0.41555801    0.48645699
 C         -0.88837898    1.07724905    0.79718399
 O         -0.22577199   -0.65238398   -0.79336798
 C         -2.17392898   -1.11008501    0.47670200
 H         -0.22671300   -0.89395398    1.27244103
 C          1.08638799   -0.14707799   -0.91620201
 C          1.14149702    1.36299706   -0.66496998
 H          1.38213503   -0.37843299   -1.94459403
 O          1.97140598   -0.74921298   -0.00105200
 C          0.50603199    1.70773602    0.69026703
 H          2.18949008    1.67098701   -0.65934002
 O          0.49911901    2.05095100   -1.72693896
 O          1.33000100    1.30660498    1.77646804
 H          0.39704800    2.79319906    0.75602102
 O         -1.73232996    1.78969705   -0.11468400
 H         -1.25201702    1.19832599    1.82427597
 H         -2.02850509   -2.17804408    0.29097199
 O         -3.07979703   -0.56165898   -0.48902899
 H         -2.64599490   -0.98546499    1.45338297
 H         -2.79250503   -0.84811300   -1.36484694
 H         -2.45514011    1.18814504   -0.36583099
 H          1.71374595    0.44441900    1.55590296
 C          2.10520792   -2.16046405   -0.17494699
 H          2.38005304   -2.38798094   -1.21030295
 H          1.17570806   -2.67740107    0.07709800
 H          2.89916110   -2.48537993    0.49653101
 H         -0.45231101    2.04090095   -1.52759695
