27
wb97x-d4 ma-def2-tzvp(-f) cpcm(dmso) E: -727.030773194277, G: -726.83678715
 C         -0.81092203   -0.41399899    0.50928199
 C         -0.87131500    1.08064604    0.81077802
 O         -0.24437299   -0.65854502   -0.78342599
 C         -2.15977812   -1.11087203    0.53885502
 H         -0.19388200   -0.88548797    1.28384304
 C          1.06335795   -0.15125300   -0.94179899
 C          1.12158406    1.36068594   -0.70206201
 H          1.33426905   -0.38902301   -1.97555399
 O          1.97201800   -0.74496800   -0.04438900
 C          0.51875699    1.71297705    0.66605902
 H          2.16883111    1.67052305   -0.72377402
 O          0.45229301    2.04058290   -1.75251496
 O          1.37004304    1.31996500    1.73394299
 H          0.40903899    2.79862690    0.72769898
 O         -1.73834205    1.78457403   -0.08604200
 H         -1.21055806    1.20852005    1.84539294
 H         -2.01707697   -2.18007302    0.35818800
 O         -3.09046793   -0.57166898   -0.40832001
 H         -2.60766411   -0.97902399    1.52593100
 H         -2.82334399   -0.86337698   -1.28878403
 H         -2.46523190    1.17946506   -0.31578800
 H          1.75118399    0.45791000    1.50844204
 C          2.10633612   -2.15684795   -0.21214600
 H          2.91290808   -2.47563410    0.44713500
 H          2.36340189   -2.38993812   -1.25082195
 H          1.18283296   -2.67455912    0.05955400
 H         -0.49389899    2.03079510   -1.52968299
