27
wb97x-d4 ma-def2-tzvp(-f) cpcm(dmso) E: -727.026400590424, G: -726.83374496
 C         -0.86799097   -0.39506501    0.21217600
 C         -0.95930398    1.08944905    0.55367100
 O         -0.11549700   -0.60876799   -0.98637003
 C         -2.21573710   -1.06307697   -0.02955300
 H         -0.37799400   -0.90063798    1.05376101
 C          1.20923698   -0.12702700   -0.92535299
 C          1.24633002    1.37648404   -0.63933003
 H          1.63331604   -0.34184599   -1.91159797
 O          1.95854497   -0.76220900    0.08268400
 C          0.44487700    1.70473003    0.62873501
 H          2.28615189    1.67619300   -0.49330100
 O          0.75782001    2.08956409   -1.76518500
 O          1.11974204    1.27144206    1.80270398
 H          0.34039301    2.78953099    0.70265597
 O         -1.66783404    1.83572495   -0.43977001
 H         -1.44189298    1.19922197    1.52870297
 H         -2.72073102   -0.59961200   -0.88002998
 O         -3.08367705   -0.92394799    1.08876598
 H         -2.04514289   -2.11648393   -0.27380401
 H         -2.73269796   -1.45264804    1.81534302
 H         -2.59460711    1.57194805   -0.44031399
 H          1.51135695    0.40434000    1.61821604
 C          2.09655094   -2.17079902   -0.10891700
 H          2.50685811   -2.37693191   -1.10307598
 H          1.13467002   -2.67804909    0.00052500
 H          2.78736591   -2.52518702    0.65512198
 H         -0.21010900    2.03365993   -1.74646294
