27
wb97x-d4 ma-def2-tzvp(-f) cpcm(dmso) E: -727.024984466353, G: -726.83336601
 C         -0.93326199   -0.37700000    0.50533003
 C         -0.98018903    1.09369195    0.89980298
 O         -0.39578399   -0.51023602   -0.81901902
 C         -2.29448295   -1.04044402    0.48257801
 H         -0.28773499   -0.90621799    1.21396303
 C          0.94673401   -0.08936000   -0.92712098
 C          1.12273300    1.36685896   -0.47733799
 H          1.17303705   -0.16797601   -1.99887204
 O          1.82501495   -0.89284700   -0.19306400
 C          0.43947300    1.68106794    0.85582697
 H          2.19194007    1.58295095   -0.39717901
 O          0.49929199    2.22982311   -1.43057704
 O          1.24307704    1.15610695    1.90359199
 H          0.36520401    2.77100110    0.93643498
 O         -1.86793995    1.84707701    0.08068100
 H         -1.35605395    1.17097902    1.92451203
 H         -2.76158905   -0.93931299    1.46455395
 O         -2.19196296   -2.43842292    0.21538299
 H         -2.93198609   -0.55213201   -0.26092300
 H         -1.72822499   -2.53381991   -0.62569201
 H         -1.42415297    1.98765194   -0.76881999
 H          0.89719802    1.49606001    2.73723793
 C          1.87648404   -2.23668408   -0.66837901
 H          0.92814100   -2.75312209   -0.49640200
 H          2.66934204   -2.73685193   -0.11294400
 H          2.11048293   -2.25617409   -1.73916602
 H          0.86520898    2.04733300   -2.30440092
