27
wb97x-d4 ma-def2-tzvp(-f) cpcm(dmso) E: -727.023869139795, G: -726.83310077
 C         -1.04472995   -0.58176202    0.89462298
 C         -1.01133299    0.93866903    1.08000100
 O          0.29478401   -1.07045805    0.81764400
 C         -1.91023302   -1.05674899   -0.27941799
 H         -1.45916498   -1.03139997    1.79980099
 C          1.06478298   -0.51865798   -0.24501100
 C          1.19846904    0.98982400   -0.06618900
 H          0.59549803   -0.75082999   -1.21219301
 O          2.33633494   -1.07308900   -0.18763800
 C         -0.18375900    1.61535501   -0.00091800
 H          1.72941196    1.17741203    0.87508899
 O          1.88613105    1.57922196   -1.15988696
 O         -0.12829100    2.99943900    0.33220899
 H         -0.67499298    1.49235594   -0.97351301
 O         -2.35212708    1.42070401    1.06973803
 H         -0.54524601    1.15571904    2.04895210
 H         -1.71006894   -0.48782200   -1.19312298
 O         -3.29670405   -0.99705702    0.04202000
 H         -1.67088103   -2.10475111   -0.47246999
 H         -3.48028898   -0.07900300    0.28616199
 H         -2.31492996    2.38502693    1.03393400
 H          0.24485600    3.47365808   -0.42029899
 C          2.38826799   -2.42684102   -0.64323997
 H          1.83659899   -3.08714509    0.03040200
 H          3.43918991   -2.71373200   -0.65594000
 H          1.97319901   -2.50442195   -1.65382004
 H          2.79522300    1.25633395   -1.14691699
