27
wb97x-d4 ma-def2-tzvp(-f) cpcm(dmso) E: -727.02386458014, G: -726.83301827
 C         -0.98878598   -0.57518899    0.96260703
 C         -0.96633899    0.94909298    1.11461699
 O          0.35191301   -1.04804599    0.82881200
 C         -1.90217197   -1.08526003   -0.15925100
 H         -1.35257494   -1.01089299    1.89591300
 C          1.05683696   -0.51200300   -0.28599200
 C          1.17934799    1.00175595   -0.14777200
 H          0.53882998   -0.77118200   -1.22077096
 O          2.33603597   -1.05095303   -0.28569800
 C         -0.20645900    1.61115599   -0.02337300
 H          1.75729001    1.21793497    0.75895500
 O          1.79880702    1.57539105   -1.28942096
 O         -0.15302800    3.00341892    0.27271801
 H         -0.74622500    1.45860600   -0.96560401
 O         -2.31223607    1.41413605    1.16692305
 H         -0.45190001    1.19276202    2.05233407
 H         -1.74731100   -0.53659201   -1.09378397
 O         -3.27324700   -1.02859700    0.22220799
 H         -1.66202104   -2.13559508   -0.33834699
 H         -3.45313907   -0.10697200    0.45553300
 H         -2.29027796    2.37790990    1.10939205
 H          0.17221600    3.46275306   -0.51066703
 C          2.38006902   -2.41255307   -0.71826500
 H          3.43218088   -2.68888402   -0.77864498
 H          1.91574895   -2.51374197   -1.70505500
 H          1.87039495   -3.06566691   -0.00556600
 H          2.71604300    1.27721095   -1.31179798
