27
wb97x-d4 ma-def2-tzvp(-f) cpcm(dmso) E: -727.023008767104, G: -726.83292449
 C         -1.12626100   -0.49881399    0.84661901
 C         -0.98041302    0.98139697    1.21648002
 O          0.17595699   -1.06717002    0.69395101
 C         -2.03897500   -0.74626201   -0.35426900
 H         -1.55563200   -1.02500796    1.70386803
 C          0.97330499   -0.45478001   -0.31131700
 C          1.20838904    1.01141798    0.02948900
 H          0.48502001   -0.54564798   -1.29200697
 O          2.20649099   -1.09303701   -0.33428901
 C         -0.12458000    1.72008002    0.19884799
 H          1.76756799    1.05892706    0.97188002
 O          1.91732395    1.67410398   -1.00846195
 O          0.04431300    3.04783607    0.68451703
 H         -0.64051402    1.74603605   -0.76909202
 O         -2.27514100    1.55702496    1.32421303
 H         -0.46718600    1.03142905    2.18508005
 H         -3.01291394   -0.29729900   -0.14227700
 O         -2.16914701   -2.13550901   -0.64308900
 H         -1.65152597   -0.28525901   -1.26350701
 H         -2.62384701   -2.55639195    0.09633100
 H         -2.15799999    2.48511505    1.56187797
 H          0.51987100    3.55260491    0.01405800
 C          2.17457891   -2.37260199   -0.96934301
 H          1.56062901   -3.07631612   -0.40105501
 H          3.20268989   -2.73144293   -1.00495398
 H          1.78118098   -2.28286290   -1.98759604
 H          2.80681896    1.30243099   -1.04595399
