27
wb97x-d4 ma-def2-tzvp(-f) cpcm(dmso) E: -727.022910856553, G: -726.8326743499999
 C         -1.03494096   -0.36488801    0.48935500
 C         -1.17947197    1.13204205    0.76369900
 O         -0.36071301   -0.57321000   -0.75801897
 C         -2.34759903   -1.11767197    0.41894701
 H         -0.43347600   -0.80550200    1.29233897
 C          1.01231003   -0.23975000   -0.69063699
 C          1.26096296    0.97347897    0.21263400
 H          1.30399895   -0.00239700   -1.72007704
 O          1.78941798   -1.29730403   -0.19992100
 C          0.03316500    1.87116694    0.19693300
 H          1.45084500    0.63122702    1.23594105
 O          2.36584806    1.73687303   -0.25537699
 O          0.23526300    3.05036306    0.96485299
 H         -0.18680400    2.13790798   -0.84468597
 O         -2.39257908    1.61588204    0.19195899
 H         -1.19779003    1.28110898    1.84973502
 H         -2.92535591   -0.93127501    1.32609296
 O         -2.12688303   -2.52442598    0.34726799
 H         -2.92913699   -0.77398902   -0.44128901
 H         -1.58918095   -2.69164205   -0.43661901
 H         -2.48406196    2.54471898    0.43528700
 H          1.01838803    3.49187398    0.61203098
 C          1.86243701   -2.40306711   -1.09814596
 H          0.88217402   -2.86974192   -1.22808695
 H          2.55176401   -3.12338400   -0.65807700
 H          2.24299312   -2.07999206   -2.07381392
 H          3.17842603    1.33159697    0.06767400
