27
wb97x-d4 ma-def2-tzvp(-f) cpcm(dmso) E: -727.022746857869, G: -726.83256683
 C         -0.90461802   -0.52395803    0.54827303
 C         -1.16300297    0.98128903    0.69715202
 O         -0.22194700   -0.79134202   -0.67891097
 C         -2.14840198   -1.39599597    0.61598498
 H         -0.26676100   -0.83047497    1.38608599
 C          1.11106801   -0.32339001   -0.67375398
 C          1.25300002    1.00928295    0.07015500
 H          1.37372005   -0.18964900   -1.72932696
 O          1.98907900   -1.23443305   -0.06917100
 C         -0.06307100    1.76646805   -0.00954500
 H          1.49940002    0.81352401    1.11973798
 O          2.26130104    1.81865001   -0.52246100
 O          0.02775000    3.04820895    0.59790200
 H         -0.34061900    1.87238097   -1.06594098
 O         -2.45053601    1.32157302    0.17542601
 H         -1.13267100    1.22726297    1.76447403
 H         -1.83553398   -2.44209695    0.62409902
 O         -3.02944303   -1.24563098   -0.48955399
 H         -2.66189408   -1.18532097    1.56262195
 H         -3.26128793   -0.30689901   -0.52354002
 H         -2.64265609    2.23790312    0.40527299
 H          0.75177199    3.51928806    0.16630401
 C          2.14556003   -2.44095206   -0.81343699
 H          2.47653294   -2.22117305   -1.83497202
 H          1.20931304   -3.00455809   -0.84898102
 H          2.90595293   -3.03140593   -0.30282199
 H          3.11799693    1.55144894   -0.17107099
