27
wb97x-d4 ma-def2-tzvp(-f) cpcm(dmso) E: -727.022739025114, G: -726.8324360299999
 C         -0.89341301   -0.52764601    0.56721699
 C         -1.15903294    0.97557497    0.71881902
 O         -0.23433100   -0.79202503   -0.67334503
 C         -2.12931204   -1.40838695    0.66441399
 H         -0.23638800   -0.82793301    1.39245903
 C          1.09549701   -0.31507099   -0.69751000
 C          1.24871099    1.01009595    0.05670200
 H          1.33057499   -0.16845900   -1.75789106
 O          1.99503303   -1.22618794   -0.12531900
 C         -0.06836000    1.76791096    0.00467000
 H          1.51176000    0.80471998    1.10044003
 O          2.24762607    1.82512295   -0.54389900
 O          0.03263000    3.04360199    0.62317300
 H         -0.36146200    1.88447106   -1.04645801
 O         -2.45200801    1.30803299    0.20538700
 H         -1.12325895    1.22090006    1.78606296
 H         -1.80862403   -2.45217395    0.66762203
 O         -3.03772211   -1.26716495   -0.42003301
 H         -2.62184596   -1.19930005    1.62255204
 H         -3.27163410   -0.32891899   -0.45481801
 H         -2.65465212    2.21883893    0.44768301
 H          0.75372601    3.51640797    0.18843900
 C          2.14406800   -2.42199898   -0.88825399
 H          2.92134595   -3.01206899   -0.40317300
 H          2.44901705   -2.18662596   -1.91439998
 H          1.21209395   -2.99336004   -0.90889198
 H          3.10996294    1.55164397   -0.21164501
