27
wb97x-d4 ma-def2-tzvp(-f) cpcm(dmso) E: -727.02525345697, G: -726.83242784
 C         -0.81773698   -0.54136097    0.53589302
 C         -0.97613001    0.94857001    0.82343400
 O         -0.28715199   -0.73264402   -0.78034800
 C         -2.11184096   -1.32971799    0.64776897
 H         -0.12382900   -0.95137697    1.27841997
 C          1.00626802   -0.19686900   -0.94994497
 C          1.05299699    1.30243301   -0.63052899
 H          1.22776794   -0.35024500   -2.01487589
 O          1.96665704   -0.84231400   -0.16309801
 C          0.37816599    1.65995800    0.69514602
 H          2.09787989    1.62461901   -0.60628802
 O          0.32053500    2.02072001   -1.62584496
 O          1.25015295    1.29639399    1.75506401
 H          0.20269600    2.74135995    0.69426101
 O         -1.94667101    1.56114304   -0.03278300
 H         -1.34168601    1.07100701    1.84693098
 H         -1.90024698   -2.38739395    0.47358701
 O         -3.11247396   -0.94487703   -0.28973600
 H         -2.47966290   -1.22062397    1.67649102
 H         -3.07611394    0.02308300   -0.34407800
 H         -1.51000595    1.73025596   -0.88319898
 H          0.90388298    1.68545604    2.56685400
 C          2.11593103   -2.22309208   -0.48702899
 H          2.96096802   -2.59280896    0.09321700
 H          2.32259011   -2.34709692   -1.55639505
 H          1.21809101   -2.78932595   -0.22478700
 H          0.65896702    1.78474903   -2.49813294
