27
wb97x-d4 ma-def2-tzvp(-f) cpcm(dmso) E: -727.028613817736, G: -726.83590657
 C         -0.91972798   -0.37315300    0.37505999
 C         -0.95239198    1.09024596    0.78323400
 O         -0.27483401   -0.54234701   -0.89646602
 C         -2.29647803   -0.99307400    0.23966300
 H         -0.36394900   -0.92667001    1.13977504
 C          1.06063294   -0.08888800   -0.92875201
 C          1.14891195    1.39967406   -0.58095300
 H          1.39485395   -0.26438299   -1.95646405
 O          1.88161600   -0.78098398   -0.01875700
 C          0.46718001    1.68209898    0.76569003
 H          2.20226192    1.68067706   -0.51680100
 O          0.56971198    2.16595197   -1.62606597
 O          1.23200905    1.18832099    1.85758901
 H          0.39248300    2.76526594    0.89589202
 O         -1.79260504    1.79766202   -0.13753900
 H         -1.35379803    1.16123796    1.79920697
 H         -2.84668589   -0.85241097    1.17245698
 O         -2.21678209   -2.39842391    0.01401800
 H         -2.84661698   -0.50389701   -0.56920499
 H         -1.72725296   -2.53163791   -0.80687600
 H         -1.97789502    2.66999507    0.23153400
 H          1.58641398    0.32235700    1.60459197
 C          1.97883201   -2.18091798   -0.28648600
 H          1.01940298   -2.67933202   -0.12617300
 H          2.72027802   -2.58149910    0.40371299
 H          2.30737495   -2.34436607   -1.31830704
 H         -0.39294600    2.11849594   -1.51358104
