27
wb97x-d4 ma-def2-tzvp(-f) cpcm(dmso) E: -727.024850729947, G: -726.8320599699999
 C         -0.87304097   -0.44828400    0.44644099
 C         -0.96648902    1.03756797    0.75773501
 O         -0.23392799   -0.67789000   -0.81657398
 C         -2.18336606   -1.22487998    0.40442601
 H         -0.27281001   -0.89686501    1.24675906
 C          1.07692802   -0.16286100   -0.90420097
 C          1.10613203    1.34629905   -0.64627200
 H          1.40037000   -0.38637000   -1.92591405
 O          1.94272304   -0.76181698    0.02977600
 C          0.43219599    1.67757905    0.69348401
 H          2.14824200    1.67162704   -0.61558801
 O          0.48070899    2.02575803   -1.72412503
 O          1.23005497    1.27500904    1.79925096
 H          0.31838700    2.76293612    0.76485699
 O         -1.83044195    1.67986703   -0.18552899
 H         -1.36001503    1.14856994    1.77360499
 H         -1.94242001   -2.29220605    0.47885799
 O         -2.96538401   -0.98679698   -0.75847399
 H         -2.79258895   -0.95064700    1.26859105
 H         -2.36965990   -1.03460205   -1.51630700
 H         -2.00958800    2.57173395    0.13743401
 H          1.62471902    0.41617900    1.58472002
 C          2.09178996   -2.17125797   -0.14922400
 H          1.15644503   -2.69492412    0.06364600
 H          2.86160994   -2.49633694    0.54949301
 H          2.40692091   -2.38881612   -1.17516899
 H         -0.47749400    1.96142602   -1.58170104
