27
wb97x-d4 ma-def2-tzvp(-f) cpcm(dmso) E: -727.022494528243, G: -726.83186899
 C         -0.93480903   -0.53167897    0.40413401
 C         -1.20809197    0.97614801    0.50722700
 O         -0.14611700   -0.81873798   -0.75309497
 C         -2.19661498   -1.37688601    0.28374201
 H         -0.38536301   -0.83798200    1.30077803
 C          1.18127096   -0.34416899   -0.63996100
 C          1.24599695    1.00876200    0.07814700
 H          1.53639495   -0.23555399   -1.67103505
 O          2.00363111   -1.23280096    0.06513700
 C         -0.06388600    1.75032604   -0.13752501
 H          1.39852202    0.84219497    1.15047801
 O          2.29633498    1.81387198   -0.44208699
 O         -0.03265400    3.05246210    0.43166000
 H         -0.25432199    1.81851697   -1.21599996
 O         -2.46012402    1.28678405   -0.10824500
 H         -1.24763095    1.24841499    1.56766498
 H         -2.65243506   -1.20942903   -0.69703102
 O         -3.11827803   -1.10088003    1.33096898
 H         -1.92425501   -2.43073392    0.36245900
 H         -3.45618796   -0.20999999    1.16714299
 H         -2.64832592    2.21884704    0.05502900
 H          0.72748500    3.51262307    0.05363500
 C          2.24836707   -2.44995403   -0.63729399
 H          2.68006396   -2.24316311   -1.62325895
 H          1.32685399   -3.02579904   -0.75842500
 H          2.95861506   -3.02210999   -0.04097100
 H          3.12556005    1.54092503   -0.03327300
