27
wb97x-d4 ma-def2-tzvp(-f) cpcm(dmso) E: -727.022296810333, G: -726.8317889599999
 C         -0.91532803   -0.45269001    0.27135700
 C         -1.09066498    1.06458294    0.46651101
 O         -0.07329200   -0.71816301   -0.85321200
 C         -2.22256398   -1.18547904    0.00855900
 H         -0.44863001   -0.86233699    1.17561901
 C          1.27356994   -0.35708201   -0.62093800
 C          1.38482201    0.94921100    0.16688600
 H          1.71192598   -0.22897699   -1.61702096
 O          1.96845198   -1.34282005    0.09189000
 C          0.14096300    1.79229403   -0.06187700
 H          1.46656501    0.71401101    1.23615003
 O          2.55799103    1.61758494   -0.27211699
 O          0.35486701    3.04040694    0.59109801
 H          0.01440600    1.95345199   -1.13841200
 O         -2.21748400    1.60873401   -0.21507600
 H         -1.17529404    1.26613903    1.53978801
 H         -2.61311197   -0.89156199   -0.96684301
 O         -3.21972609   -0.83606201    0.96729702
 H         -2.04152894   -2.26431203    0.00068400
 H         -2.96593094   -1.20012605    1.82376802
 H         -3.00727510    1.25105202    0.21167199
 H         -0.26812699    3.68290305    0.23338200
 C          2.16468906   -2.54134297   -0.65587699
 H          1.21166694   -3.03272605   -0.86966401
 H          2.78259492   -3.19791698   -0.04395400
 H          2.68132710   -2.32546997   -1.59809601
 H          2.54511595    2.49669600    0.12842700
