27
wb97x-d4 ma-def2-tzvp(-f) cpcm(dmso) E: -727.022278215646, G: -726.83174213
 C         -0.88976300   -0.46180299    0.32935899
 C         -1.07857203    1.05525601    0.51273900
 O         -0.11110000   -0.73072898   -0.83917600
 C         -2.19760895   -1.22008204    0.15774301
 H         -0.36281100   -0.84922701    1.20992899
 C          1.24105799   -0.34602901   -0.68995303
 C          1.37618506    0.97271299    0.07291900
 H          1.61935198   -0.22542000   -1.71124804
 O          1.99086297   -1.31126595   -0.00547000
 C          0.10837300    1.79340005   -0.09657600
 H          1.52140999    0.75403398    1.13887596
 O          2.51137209    1.65293205   -0.44121400
 O          0.33982500    3.05475903    0.52433401
 H         -0.08218700    1.93574798   -1.16628098
 O         -2.25162506    1.57137895   -0.10982500
 H         -1.10428202    1.27186704    1.58610797
 H         -2.65388703   -0.94652098   -0.79476202
 O         -3.13827896   -0.87493098    1.17340803
 H         -1.99813795   -2.29569888    0.15201201
 H         -2.82379603   -1.22368205    2.01594806
 H         -3.00945210    1.21168196    0.36998600
 H         -0.31285799    3.68225789    0.19401801
 C          2.15978003   -2.51787996   -0.74681598
 H          2.82065511   -3.15778089   -0.16274600
 H          2.61816096   -2.30914497   -1.72028303
 H          1.20264006   -3.02421188   -0.89831501
 H          2.50468397    2.53837800   -0.05471400
