27
wb97x-d4 ma-def2-tzvp(-f) cpcm(dmso) E: -727.021479500769, G: -726.83167214
 C         -0.92196900   -0.55360198    1.14949596
 C         -0.86976701    0.97229898    1.29553902
 O          0.37757799   -1.04704201    0.81286597
 C         -2.03483391   -1.10527205    0.27388501
 H         -1.11538804   -0.96747500    2.14309502
 C          0.97442102   -0.48161900   -0.35132599
 C          1.12817502    1.02467704   -0.18678500
 H          0.36727700   -0.71399599   -1.23357999
 O          2.24780798   -1.02529395   -0.47987700
 C         -0.22030000    1.65741503    0.10410200
 H          1.80501902    1.20910800    0.65714997
 O          1.63543904    1.61914599   -1.37401998
 O         -0.08521800    3.03509593    0.45337000
 H         -0.86365300    1.55650795   -0.77399802
 O         -2.19000006    1.45020700    1.51338005
 H         -0.24728701    1.19015896    2.17356801
 H         -1.92393100   -2.19552493    0.24809700
 O         -1.99287498   -0.56755298   -1.04758596
 H         -2.98935890   -0.86550200    0.75321698
 H         -2.71323109   -0.96357900   -1.55028796
 H         -2.13061595    2.40809298    1.61710703
 H          0.18435800    3.51761794   -0.33690700
 C          2.24939299   -2.35914898   -0.98909402
 H          3.29243112   -2.63759995   -1.13846004
 H          1.71718895   -2.40353298   -1.94556105
 H          1.78444803   -3.04997706   -0.28048000
 H          2.53489399    1.29639196   -1.50691104
