27
wb97x-d4 ma-def2-tzvp(-f) cpcm(dmso) E: -727.028076480981, G: -726.83544806
 C         -0.92607099   -0.39798599    0.51902598
 C         -0.95462000    1.07621300    0.90693998
 O         -0.41165599   -0.56548202   -0.81389302
 C         -2.29443908   -1.04769897    0.52822697
 H         -0.28110600   -0.93349397    1.22478402
 C          0.90152299   -0.08646800   -0.98683703
 C          1.00574398    1.40077698   -0.65202498
 H          1.13249302   -0.26240200   -2.04248190
 O          1.82798195   -0.74898100   -0.16097100
 C          0.44772899    1.68752694    0.75042999
 H          2.05666804    1.69879794   -0.69985002
 O          0.24066600    2.08296609   -1.64668095
 O          1.33077204    1.21835995    1.76141798
 H          0.36411700    2.77009010    0.87941301
 O         -1.91510296    1.81388605    0.15787201
 H         -1.24702096    1.15179503    1.95747006
 H         -2.74771404   -0.91722703    1.51328301
 O         -2.21154594   -2.45242095    0.29509500
 H         -2.93590403   -0.57007998   -0.21817000
 H         -1.79322803   -2.57722998   -0.56557202
 H         -1.54239404    1.94812799   -0.72686303
 H          1.67970204    0.35982701    1.47821903
 C          1.92190802   -2.15144801   -0.41667101
 H          2.74084306   -2.52600694    0.19612800
 H          2.14104700   -2.32699394   -1.47504401
 H          0.99502200   -2.66313410   -0.14573100
 H          0.47458601    3.01868796   -1.61751604
