27
wb97x-d4 ma-def2-tzvp(-f) cpcm(dmso) E: -727.021701458039, G: -726.83161875
 C         -1.01833904   -0.38285100    0.41697201
 C         -1.18480504    1.11136496    0.70430499
 O         -0.34130499   -0.56299698   -0.82933098
 C         -2.33466911   -1.13541901    0.36764401
 H         -0.40813601   -0.81759799    1.21855199
 C          1.02577603   -0.21502700   -0.74917299
 C          1.26022005    0.98700100    0.17310899
 H          1.32274306    0.04184300   -1.77256298
 O          1.81315303   -1.27281797   -0.27049699
 C          0.02409900    1.87242401    0.15909100
 H          1.44475305    0.63300800    1.19354296
 O          2.36176991    1.76655304   -0.27530399
 O          0.20683500    3.04501104    0.94291502
 H         -0.18919501    2.15010405   -0.88095701
 O         -2.39636898    1.58282304    0.11783900
 H         -1.22096300    1.25176406    1.79116094
 H         -2.93269205   -0.86438900    1.24425805
 O         -2.14277697   -2.54603195    0.29740000
 H         -2.88922095   -0.85327101   -0.52764499
 H         -1.75709105   -2.83799410    1.13173902
 H         -2.49790812    2.51073599    0.36085600
 H          0.98728502    3.49835706    0.59920198
 C          1.89807796   -2.36288404   -1.18735397
 H          2.58556104   -3.08931589   -0.75431800
 H          2.28718996   -2.02125597   -2.15329409
 H          0.92032897   -2.82935500   -1.33462405
 H          3.17567706    1.34021699    0.01647500
