27
wb97x-d4 ma-def2-tzvp(-f) cpcm(dmso) E: -727.022499393971, G: -726.83111373
 C         -0.96279103   -0.48426801    0.41713899
 C         -1.21769798    1.02812302    0.54157799
 O         -0.17007600   -0.75489402   -0.74217403
 C         -2.23714399   -1.30397999    0.26551899
 H         -0.42673999   -0.81752098    1.31276298
 C          1.16635501   -0.31300601   -0.60294098
 C          1.25593102    0.99378902    0.19175600
 H          1.52710497   -0.15388501   -1.62546599
 O          1.96842396   -1.25590503    0.05265300
 C         -0.02024100    1.79791498   -0.00922100
 H          1.37742305    0.76220798    1.25574899
 O          2.34436798    1.79112303   -0.25797400
 O          0.05467200    3.05798006    0.64062500
 H         -0.16401801    1.94419599   -1.08908296
 O         -2.43862391    1.45356202   -0.06317100
 H         -1.32516301    1.27396703    1.60025096
 H         -2.67400408   -1.11774504   -0.72144002
 O         -3.17165399   -1.02296698    1.29973400
 H         -1.98859799   -2.36441708    0.33362299
 H         -3.50708699   -0.13199100    1.13355994
 H         -2.37536502    1.32594705   -1.01827097
 H          0.86972898    3.48186994    0.34185401
 C          2.19018698   -2.43756700   -0.71504700
 H          1.25659502   -2.98429394   -0.87304097
 H          2.88292098   -3.05817795   -0.14726201
 H          2.63341594   -2.18686199   -1.68548906
 H          3.15207505    1.47679901    0.16377500
