27
wb97x-d4 ma-def2-tzvp(-f) cpcm(dmso) E: -727.020352137728, G: -726.82923018
 C         -1.20354497   -0.76059401    0.66662198
 C         -0.83064902    0.63860798    1.16541696
 O         -0.02828700   -1.42616105    0.20313300
 C         -2.32276702   -0.78134000   -0.38198400
 H         -1.54835999   -1.35193205    1.51794600
 C          0.66277099   -0.75270599   -0.84115899
 C          1.13333797    0.62082899   -0.35663101
 H          0.01356100   -0.62254202   -1.71409202
 O          1.69495201   -1.57880902   -1.28380704
 C         -0.07090800    1.42175996    0.10743300
 H          1.82011902    0.50319397    0.48873100
 O          1.74924004    1.34392595   -1.41347599
 O          0.30698600    2.65755200    0.70614702
 H         -0.72395402    1.61656904   -0.75147402
 O         -2.02652597    1.31741405    1.53889596
 H         -0.17670000    0.52803898    2.03944492
 H         -2.14966297   -0.05081300   -1.17919099
 O         -3.59812689   -0.56670702    0.21422499
 H         -2.34274602   -1.77630305   -0.83175302
 H         -3.53974509    0.27684700    0.68476802
 H         -1.79721403    2.24288011    1.69438100
 H          0.62483603    3.24389005    0.00967300
 C          2.73332810   -1.85311103   -0.33606601
 H          3.38018894   -0.98347300   -0.18700400
 H          3.32374597   -2.66207504   -0.76483500
 H          2.32079005   -2.17334604    0.62257499
 H          2.59533310    0.92840302   -1.61791801
