27
wb97x-d4 ma-def2-tzvp(-f) cpcm(dmso) E: -727.02849005686, G: -726.83477462
 C         -0.87646598   -0.55739999    0.46013501
 C         -1.03648603    0.93359500    0.74855399
 O         -0.23648000   -0.76346201   -0.80681098
 C         -2.18380308   -1.33266604    0.46086699
 H         -0.25952199   -0.98811603    1.25816202
 C          1.04711401   -0.19242001   -0.89945799
 C          1.02039397    1.31531405   -0.65311998
 H          1.38254499   -0.41034901   -1.91856301
 O          1.94340205   -0.73441702    0.04122300
 C          0.32443699    1.64173806    0.67581701
 H          2.04831195    1.68673301   -0.63463598
 O          0.29647601    1.88399994   -1.74676096
 O          1.14001095    1.29888499    1.78779101
 H          0.15392400    2.72067809    0.72708601
 O         -1.97259605    1.55699003   -0.13866900
 H         -1.43570399    1.04958797    1.75896800
 H         -1.96790802   -2.39045405    0.29310200
 O         -3.10582304   -0.93297601   -0.54646999
 H         -2.62844491   -1.23000002    1.45949996
 H         -3.07988310    0.03672400   -0.56740099
 H         -1.50068998    1.73095298   -0.96982199
 H          1.57182503    0.45349801    1.59269404
 C          2.16305089   -2.13637495   -0.12343400
 H          1.25481796   -2.70421195    0.09310600
 H          2.94685292   -2.41470408    0.57981098
 H          2.49113607   -2.34783602   -1.14653897
 H          0.49950701    2.82668900   -1.78513396
