27
wb97x-d4 ma-def2-tzvp(-f) cpcm(dmso) E: -727.027152406287, G: -726.8344375199999
 C         -0.97073197   -0.39449501    0.33664101
 C         -1.02528703    1.06913805    0.76476097
 O         -0.31549099   -0.52749801   -0.93367600
 C         -2.35052204   -1.00998199    0.20483901
 H         -0.41023901   -0.95520502    1.09529102
 C          1.01187098   -0.06024400   -0.94665802
 C          1.09798300    1.41370797   -0.55457997
 H          1.35487795   -0.20484801   -1.97639704
 O          1.83808994   -0.76378900   -0.04961800
 C          0.39030099    1.66698599    0.78403997
 H          2.15150595    1.69584596   -0.47509399
 O          0.45810300    2.13863492   -1.60627306
 O          1.14824903    1.15523195    1.87319195
 H          0.30459201    2.74620104    0.93726999
 O         -1.89161694    1.83745098   -0.06464000
 H         -1.43195200    1.11829197    1.77797401
 H         -2.92913699   -0.76527101    1.10308897
 O         -2.30735898   -2.42019892   -0.00017300
 H         -2.86252308   -0.58809298   -0.66033500
 H         -1.94907904   -2.82943606    0.79633898
 H         -1.42090094    1.99384105   -0.89730299
 H          1.51191497    0.29749599    1.60636795
 C          1.94582701   -2.15677595   -0.34832299
 H          0.98978502   -2.66546893   -0.20152700
 H          2.68902302   -2.56642509    0.33457899
 H          2.27789497   -2.29502797   -1.38268697
 H          0.69481897    3.06993103   -1.51709795
