27
wb97x-d4 ma-def2-tzvp(-f) cpcm(dmso) E: -727.024461362253, G: -726.83423937
 C         -1.14226496   -0.46956000    0.94006997
 C         -0.98654699    1.02127194    1.24905598
 O          0.14856200   -1.05340695    0.73115599
 C         -2.09409690   -0.77959299   -0.21143501
 H         -1.52569604   -0.97101498    1.83150804
 C          0.91406101   -0.45517501   -0.31165999
 C          1.16760194    1.01387298   -0.00027400
 H          0.38802901   -0.55430800   -1.27228296
 O          2.13858104   -1.10461295   -0.37051600
 C         -0.15862601    1.72999406    0.18820301
 H          1.75133801    1.07429802    0.92636102
 O          1.85162497    1.65395200   -1.06821597
 O          0.02531800    3.06957603    0.63362402
 H         -0.70122302    1.73034501   -0.76541799
 O         -2.28351998    1.59052300    1.36357200
 H         -0.45238701    1.11004698    2.20346093
 H         -3.09011793   -0.41986400    0.04518800
 O         -2.19788694   -2.18635607   -0.40979299
 H         -1.78680205   -0.28552800   -1.13911998
 H         -1.30348003   -2.53333402   -0.51897103
 H         -2.17017794    2.52589798    1.57271802
 H          0.48559201    3.55456996   -0.06168400
 C          2.07216406   -2.39084792   -0.98985797
 H          1.64599895   -2.30748105   -1.99539995
 H          1.47015798   -3.08154202   -0.39326000
 H          3.09458590   -2.76129103   -1.05541396
 H          2.73921108    1.27956700   -1.12161398
