27
wb97x-d4 ma-def2-tzvp(-f) cpcm(dmso) E: -727.027056723297, G: -726.83414972
 C         -0.89095199   -0.43886200    0.16620500
 C         -1.01996696    1.03928900    0.49663600
 O         -0.09310700   -0.63555002   -1.00739801
 C         -2.21965694   -1.12866294   -0.11268600
 H         -0.41622600   -0.93361598    1.02213097
 C          1.22198999   -0.13597301   -0.89169502
 C          1.22901595    1.36672103   -0.59547001
 H          1.68736601   -0.33837301   -1.86179304
 O          1.94059896   -0.76733601    0.14101900
 C          0.37178800    1.67762196    0.64026803
 H          2.25865698    1.67859006   -0.40798700
 O          0.77190900    2.07876492   -1.73529804
 O          1.00249004    1.25147200    1.84202695
 H          0.25144199    2.76182699    0.71431798
 O         -1.74111295    1.67930996   -0.56437600
 H         -1.56015003    1.14163601    1.44149697
 H         -2.73149896   -0.63239300   -0.93734801
 O         -3.09170198   -1.06311405    1.01002598
 H         -2.01960611   -2.16659689   -0.39846301
 H         -2.73815989   -1.63244903    1.70383406
 H         -2.03502393    2.54267812   -0.25009599
 H          1.41147804    0.38925999    1.67331696
 C          2.11111212   -2.17149305   -0.05673400
 H          1.15454996   -2.69610906    0.00844900
 H          2.77609301   -2.52102399    0.73212397
 H          2.56543493   -2.36130190   -1.03486896
 H         -0.19676299    2.01568294   -1.73763704
