27
wb97x-d4 ma-def2-tzvp(-f) cpcm(dmso) E: -727.027039223428, G: -726.83411135
 C         -0.87750500   -0.44074100    0.22202100
 C         -0.99583298    1.04196501    0.53614402
 O         -0.14354600   -0.65191299   -0.99002600
 C         -2.21611500   -1.13916600    0.02495400
 H         -0.35496399   -0.92066503    1.05821204
 C          1.17256403   -0.14399000   -0.95550102
 C          1.18744695    1.36301994   -0.68299598
 H          1.58449197   -0.35993499   -1.94662905
 O          1.95051503   -0.75549197    0.04547200
 C          0.39841199    1.68878996    0.59332001
 H          2.22418189    1.68261302   -0.55827600
 O          0.66334897    2.05558395   -1.80581796
 O          1.09691405    1.28426003    1.76462400
 H          0.27642900    2.77345300    0.65713501
 O         -1.77781999    1.66102600   -0.49336901
 H         -1.48404098    1.15673602    1.50752902
 H         -2.77457190   -0.65442598   -0.77599102
 O         -3.02551699   -1.06314802    1.19313002
 H         -2.02750611   -2.17966890   -0.25931701
 H         -2.62786698   -1.61615396    1.87600994
 H         -2.05523491    2.52991605   -0.17925300
 H          1.50045002    0.42140201    1.58635294
 C          2.11275506   -2.16268301   -0.13674399
 H          2.82788301   -2.49604392    0.61426502
 H          2.50440788   -2.36978793   -1.13820696
 H          1.16415501   -2.68823791   -0.00095800
 H         -0.30343401    1.98328805   -1.75608397
