27
wb97x-d4 ma-def2-tzvp(-f) cpcm(dmso) E: -727.029483090944, G: -726.8384343499999
 C          1.02175200   -0.50387901   -0.22183301
 C          1.05338395    1.01002800   -0.40401000
 O          0.07483300   -0.84846401    0.79510200
 C          2.35071111   -1.08794701    0.22152700
 H          0.74097699   -0.97213900   -1.17323101
 C         -1.24956095   -0.43803400    0.52987599
 C         -1.34418905    1.07421899    0.31464601
 H         -1.81382704   -0.73120302    1.42306101
 O         -1.77952695   -1.05092394   -0.61217302
 C         -0.34208900    1.51900995   -0.74191302
 H         -2.35805297    1.32006204   -0.01336700
 O         -1.02815795    1.77074897    1.51717401
 O         -0.34193301    2.93413401   -0.89353698
 H         -0.63898802    1.10490096   -1.70854902
 O          1.96317804    1.30000103   -1.45999396
 H          1.39492595    1.47613394    0.52683800
 H          2.24512601   -2.17623091    0.29819399
 O          2.80804205   -0.54128301    1.45438504
 H          3.11191010   -0.86428499   -0.52659398
 H          2.13373709   -0.72254401    2.12040401
 H          1.89618397    2.24630809   -1.63927495
 H         -0.32096800    3.31138611   -0.00296200
 C         -1.90774298   -2.46552300   -0.48328000
 H         -2.48891711   -2.71727109    0.41104901
 H         -0.92750400   -2.94652605   -0.42434001
 H         -2.43275094   -2.81650305   -1.37120903
 H         -1.82055402    1.81582105    2.06400990
