27
wb97x-d4 ma-def2-tzvp(-f) cpcm(dmso) E: -727.027106374035, G: -726.83653865
 C          0.96124500   -0.34543401    0.05145900
 C          0.92467099    1.17262197   -0.14642701
 O         -0.06745700   -0.73933297    0.96406299
 C          2.27822399   -0.80771601    0.63253403
 H          0.80467403   -0.83860600   -0.91709203
 C         -1.37529695   -0.41492099    0.54624599
 C         -1.54325402    1.08434403    0.32188201
 H         -2.01764393   -0.74551398    1.37028694
 O         -1.73251903   -1.05241799   -0.64874202
 C         -0.46026400    1.59383094   -0.61831599
 H         -2.52644610    1.26138306   -0.12783000
 O         -1.46015203    1.71328199    1.59350705
 O         -0.58256900    3.01114392   -0.67370200
 H         -0.63307703    1.16102099   -1.61277699
 O          1.91418695    1.62287700   -1.06791306
 H          1.15514600    1.66824305    0.79995602
 H          3.09433389   -0.36583501    0.05370600
 O          2.32919788   -2.23311210    0.56912398
 H          2.35302496   -0.46236601    1.67050695
 H          3.17580009   -2.51733208    0.93088800
 H          1.75301099    1.20177495   -1.92290902
 H          0.19917500    3.35427999   -1.12500298
 C         -1.78292000   -2.47290301   -0.53196800
 H         -0.78671497   -2.89061308   -0.36229500
 H         -2.18155408   -2.85198212   -1.47268498
 H         -2.44386101   -2.76597691    0.29164901
 H         -1.34896195    2.65925908    1.43185198
