27
wb97x-d4 ma-def2-tzvp(-f) cpcm(dmso) E: -727.028445434978, G: -726.83648775
 C          0.90874898   -0.50094903    0.12227700
 C          0.97156501    1.00626302   -0.11554100
 O         -0.21705000   -0.79684800    0.95358503
 C          2.13143396   -1.03568995    0.85925198
 H          0.81475401   -1.01768005   -0.83961201
 C         -1.46481502   -0.43823200    0.37999499
 C         -1.52082503    1.06648803    0.12969700
 H         -2.20531607   -0.72840601    1.13362396
 O         -1.70568800   -1.08314800   -0.83328497
 C         -0.33236799    1.50456703   -0.72501498
 H         -2.45220590    1.31298900   -0.38254300
 O         -1.54721296    1.77504694    1.36554599
 O         -0.30588999    2.91694808   -0.88796997
 H         -0.43672001    1.07801998   -1.72569799
 O          2.07506394    1.26843703   -0.98105699
 H          1.13783598    1.50575101    0.84854299
 H          2.28627205   -0.45285299    1.77645600
 O          3.29832006   -1.02437603    0.04489300
 H          1.94506001   -2.07463002    1.13911498
 H          3.35015798   -0.14734200   -0.36256000
 H          2.13796592    2.22464895   -1.09787905
 H         -0.46404099    3.30543303   -0.01611800
 C         -1.85016096   -2.49710798   -0.69997102
 H         -2.14855289   -2.87540698   -1.67716396
 H         -2.62393808   -2.73349500    0.03877300
 H         -0.90721798   -2.96233511   -0.39966699
 H         -0.87517601    1.40390897    1.95232499
