27
wb97x-d4 ma-def2-tzvp(-f) cpcm(dmso) E: -727.028425822735, G: -726.83646626
 C          0.90946299   -0.50404501    0.07045000
 C          0.96302003    1.00445104   -0.16273300
 O         -0.16806500   -0.80328602    0.96211702
 C          2.17058301   -1.04500103    0.73378599
 H          0.76027101   -1.01492405   -0.88747603
 C         -1.44423401   -0.43893400    0.45892799
 C         -1.51087201    1.06908298    0.23422500
 H         -2.14486909   -0.74061698    1.24540997
 O         -1.74596703   -1.06555796   -0.75044602
 C         -0.37412900    1.51404703   -0.68510002
 H         -2.47019410    1.32603502   -0.21772400
 O         -1.45974398    1.75761902    1.48041797
 O         -0.35088700    2.92805409   -0.83410001
 H         -0.54077899    1.09937298   -1.68226194
 O          2.01029205    1.26505804   -1.09604204
 H          1.19311702    1.49745703    0.79152602
 H          2.37988091   -0.46663299    1.64300799
 O          3.28820610   -1.03258598   -0.14676499
 H          1.99819696   -2.08473206    1.01950800
 H          3.32009506   -0.15332299   -0.55127102
 H          2.06571388    2.22108412   -1.21820700
 H         -0.44635299    3.30863190    0.05018700
 C         -1.87985003   -2.48204803   -0.63260102
 H         -2.62126088   -2.73268509    0.13400500
 H         -0.92346501   -2.94757295   -0.37889200
 H         -2.21721792   -2.84676003   -1.60220599
 H         -0.76095003    1.36781096    2.02225590
