27
wb97x-d4 ma-def2-tzvp(-f) cpcm(dmso) E: -727.025644900659, G: -726.83515745
 C          0.93549800   -0.29963601    0.10066200
 C          0.91041499    1.20261395   -0.20408501
 O         -0.13986599   -0.64763898    0.98180097
 C          2.22223091   -0.71052498    0.77962399
 H          0.83138102   -0.85506099   -0.83984101
 C         -1.42817295   -0.35505301    0.46830899
 C         -1.56353998    1.15122902    0.25556600
 H         -2.11828089   -0.68958902    1.25065601
 O         -1.69284403   -1.00266504   -0.73998201
 C         -0.47030699    1.61553502   -0.70150501
 H         -2.54161000    1.37455797   -0.17440100
 O         -1.52047098    1.80984104    1.51460898
 O         -0.56479001    3.02310705   -0.86574298
 H         -0.64495701    1.11408603   -1.66330898
 O          1.90819204    1.56358099   -1.15458202
 H          1.15565801    1.76592898    0.70150501
 H          3.06428695   -0.29402599    0.21898800
 O          2.28954697   -2.13586998    0.80740303
 H          2.23680401   -0.30048999    1.79639900
 H          3.09775496   -2.38718605    1.26801801
 H          1.73703098    1.08348298   -1.97591603
 H          0.15799101    3.29306793   -1.44588196
 C         -1.75491798   -2.42308092   -0.61367899
 H         -2.07592106   -2.81074190   -1.58000803
 H         -2.48069811   -2.70695090    0.15643300
 H         -0.77574003   -2.83852196   -0.35991499
 H         -0.77467501    1.46000302    2.01887393
