27
wb97x-d4 ma-def2-tzvp(-f) cpcm(dmso) E: -727.023343050878, G: -726.8320265899999
 C          1.06889904   -0.35149199   -0.27354500
 C          1.20670497    1.16146302   -0.47712201
 O          0.04208600   -0.61252397    0.68905002
 C          2.33644104   -1.01383805    0.23050900
 H          0.80058300   -0.80782199   -1.23337197
 C         -1.25944901   -0.32785699    0.19933200
 C         -1.29231000    1.00051200   -0.57108700
 H         -1.88573599   -0.26526800    1.09676099
 O         -1.73167598   -1.33193696   -0.65130699
 C         -0.11615600    1.86978996   -0.14921901
 H         -1.20297205    0.78786898   -1.63916302
 O         -2.53746700    1.65717900   -0.39457899
 O         -0.21108200    2.21410990    1.23340297
 H         -0.15479299    2.81481409   -0.69532901
 O          1.57870901    1.35043001   -1.83933401
 H          1.97501802    1.56487405    0.18971699
 H          2.18163800   -2.09742594    0.27517501
 O          2.74700999   -0.51291502    1.49889195
 H          3.14834189   -0.80699801   -0.47005299
 H          2.05873799   -0.73257297    2.13833594
 H          1.90185404    2.25317502   -1.94300699
 H         -0.03380600    1.41822600    1.75254798
 C         -1.96730304   -2.57182288    0.01426200
 H         -2.41667199   -3.24230790   -0.71773702
 H         -2.65644193   -2.43096399    0.85472703
 H         -1.03269100   -3.00523496    0.38005701
 H         -2.54746509    2.01853609    0.50208598
