27
wb97x-d4 ma-def2-tzvp(-f) cpcm(dmso) E: -727.022140419968, G: -726.83173042
 C          1.21024096   -0.21170500   -0.13218500
 C          1.32964897    1.31364703   -0.24082699
 O          0.17355300   -0.54429299    0.79089999
 C          2.47943211   -0.85661000    0.38256001
 H          0.97496498   -0.62900901   -1.12022495
 C         -1.12273705   -0.24065000    0.31916699
 C         -1.13404298    0.99241501   -0.58866102
 H         -1.72611201   -0.06099800    1.21511400
 O         -1.67340696   -1.29643095   -0.42474300
 C         -0.05654800    1.97852194   -0.16995300
 H         -0.92458701    0.67053199   -1.61623597
 O         -2.38970900    1.65598202   -0.52984899
 O         -0.26717299    2.43936396    1.16273701
 H         -0.06411900    2.82519794   -0.86519200
 O          2.04772305    1.67352998   -1.41449499
 H          1.91634905    1.69928503    0.59649998
 H          3.31680799   -0.56867200   -0.25504401
 O          2.40110493   -2.27791309    0.35410300
 H          2.67378807   -0.49786001    1.40100801
 H          1.64146399   -2.53396606    0.89199102
 H          1.58724296    1.31395602   -2.18341708
 H         -1.16838503    2.78294802    1.20970595
 C         -1.97459900   -2.44395995    0.36774999
 H         -2.47117996   -3.16042209   -0.28601801
 H         -2.64449191   -2.17503405    1.19234502
 H         -1.06262302   -2.89151192    0.77227801
 H         -3.07260609    1.04365504   -0.82931501
