27
wb97x-d4 ma-def2-tzvp(-f) cpcm(dmso) E: -727.029600466491, G: -726.83835002
 C          1.00479996   -0.36866501   -0.02267400
 C          1.01392496    1.11094105   -0.38918400
 O         -0.02041200   -0.61235303    0.95044100
 C          2.30364490   -0.82448500    0.61158699
 H          0.81028402   -0.96458799   -0.92105597
 C         -1.33052003   -0.33275399    0.48723599
 C         -1.45212805    1.14533401    0.12454500
 H         -1.98068297   -0.57381302    1.33585000
 O         -1.67762601   -1.08128202   -0.63892102
 C         -0.36759299    1.53207695   -0.88025999
 H         -2.43569708    1.33126104   -0.30995601
 O         -1.37783396    1.95300603    1.29582298
 O         -0.39474800    2.92654300   -1.16035104
 H         -0.56672603    1.02321601   -1.82677996
 O          1.99325895    1.31080306   -1.40081704
 H          1.27692795    1.69702601    0.50284600
 H          3.13007498   -0.63559502   -0.07385300
 O          2.29448795   -2.22406292    0.87483603
 H          2.47488499   -0.25602999    1.53440404
 H          1.54116905   -2.40449691    1.45047903
 H          1.90920198    2.22485304   -1.70101297
 H         -0.45499700    3.38553905   -0.31089500
 C         -1.74510598   -2.48405290   -0.38256800
 H         -2.14092898   -2.94913197   -1.28471696
 H         -2.41452003   -2.68629408    0.46088299
 H         -0.75403398   -2.89227104   -0.16551200
 H         -0.63910699    1.64927602    1.83962703
