27
wb97x-d4 ma-def2-tzvp(-f) cpcm(dmso) E: -727.022754201303, G: -726.83167537
 C          1.07515204   -0.24918801   -0.04426000
 C          1.19916105    1.23793602   -0.39864501
 O         -0.01595300   -0.43105400    0.86144602
 C          2.33524394   -0.77875799    0.60865802
 H          0.88148898   -0.80937898   -0.96723002
 C         -1.27731395   -0.25444001    0.23643000
 C         -1.27771294    0.96900398   -0.69281101
 H         -1.97957504   -0.10524300    1.06494403
 O         -1.65239894   -1.37034404   -0.51836902
 C         -0.16892600    1.92819297   -0.27828500
 H         -1.08629298    0.63327801   -1.71483600
 O         -2.55165005    1.59336305   -0.70801097
 O         -0.40054899    2.43053198    1.03801799
 H         -0.18248600    2.79934692   -0.93677700
 O          1.70395005    1.29778194   -1.72780395
 H          1.88623095    1.73914003    0.29390499
 H          3.19623208   -0.46338299    0.00836800
 O          2.32420111   -2.19132710    0.78161699
 H          2.43327188   -0.34348801    1.60647202
 H          2.37149310   -2.60279608   -0.08936900
 H          1.99352205    2.20098805   -1.90308905
 H         -0.25510699    1.70777500    1.66302705
 C         -1.91848803   -2.52446008    0.27749500
 H         -2.29186106   -3.29403496   -0.39755699
 H         -2.67862511   -2.30058408    1.03457499
 H         -1.00975597   -2.88006210    0.77020299
 H         -2.65324998    2.06120205    0.13188300
