27
wb97x-d4 ma-def2-tzvp(-f) cpcm(dmso) E: -727.022339752275, G: -726.83159503
 C          1.04577506   -0.25873399   -0.13880000
 C          1.17071104    1.23814201   -0.44818699
 O         -0.00730500   -0.45912001    0.80860299
 C          2.32272696   -0.82112598    0.43593699
 H          0.80658400   -0.78807700   -1.06803095
 C         -1.29239297   -0.25038400    0.24462500
 C         -1.31776595    1.00007296   -0.64725697
 H         -1.95618296   -0.11776800    1.10696602
 O         -1.71357596   -1.33920801   -0.52505100
 C         -0.18413600    1.93598795   -0.24824101
 H         -1.16936302    0.69382203   -1.68554699
 O         -2.58517909    1.63543797   -0.59380400
 O         -0.35673800    2.39708591    1.09189200
 H         -0.21642099    2.82802510   -0.87742400
 O          1.61928797    1.33787501   -1.79490805
 H          1.89095795    1.70970297    0.23107000
 H          3.15862298   -0.48775199   -0.18975300
 O          2.23781991   -2.24379396    0.45213601
 H          2.46491694   -0.42612699    1.44912195
 H          3.04603100   -2.58763599    0.84833503
 H          1.91394401    2.24286699   -1.95118403
 H         -0.19104201    1.65355897    1.68669200
 C         -1.95693398   -2.51363993    0.24791700
 H         -1.03173697   -2.89076495    0.69140399
 H         -2.36527300   -3.26041794   -0.43243700
 H         -2.68263888   -2.30557489    1.04245996
 H         -2.65069389    2.07754588    0.26346201
