27
wb97x-d4 ma-def2-tzvp(-f) cpcm(dmso) E: -727.023089841253, G: -726.83050871
 C          1.38838303   -0.41956300   -0.67067301
 C          1.33569002    1.10620296   -0.81451201
 O          0.09812300   -1.01560497   -0.84024602
 C          2.14961100   -0.94819897    0.54445797
 H          1.96405303   -0.77160102   -1.53131902
 C         -0.93687302   -0.48785999   -0.02006700
 C         -1.11942005    0.99570602   -0.30306399
 H         -0.70615500   -0.66357303    1.03642499
 O         -2.12653494   -1.12500298   -0.36315700
 C          0.17546800    1.75686204   -0.05911000
 H         -1.40033901    1.10641396   -1.35581696
 O         -2.10492992    1.56198299    0.55071002
 O          0.50614297    1.78602302    1.33029699
 H          0.05608300    2.78540611   -0.41848099
 O          1.20116901    1.37603498   -2.20962906
 H          2.27463198    1.52496600   -0.43558601
 H          2.22760105   -2.03247309    0.43796799
 O          1.56550300   -0.71271002    1.81728303
 H          3.16487098   -0.53143299    0.49608499
 H          1.28351796    0.21806900    1.85349405
 H          1.24990106    2.33061504   -2.34048891
 H         -0.30799699    1.97850204    1.81607103
 C         -2.23005009   -2.45446706    0.15030500
 H         -1.48969305   -3.11110210   -0.31345600
 H         -3.23202610   -2.80786610   -0.09048800
 H         -2.09112406   -2.45608497    1.23650897
 H         -2.89560699    1.01075602    0.49649099
