27
wb97x-d4 ma-def2-tzvp(-f) cpcm(dmso) E: -727.023508115377, G: -726.83014055
 C          0.96908802   -0.54343897   -0.08907000
 C          0.86510599    0.79408503   -0.85638303
 O         -0.12298700   -0.74185503    0.81954902
 C          2.24483800   -0.70016098    0.71134698
 H          0.97069103   -1.34570706   -0.83536601
 C         -1.37168300   -0.34729499    0.29135400
 C         -1.45439506    1.17350399    0.09554600
 H         -2.11332011   -0.67107999    1.02727902
 O         -1.62435699   -0.95297301   -0.95656401
 C         -0.05567300    1.79070401   -0.14676400
 H         -2.08957696    1.36159599   -0.77193999
 O         -2.06468606    1.78854406    1.21733296
 O          0.49720600    2.25298595    1.08043694
 H         -0.16753300    2.66615391   -0.78899002
 O          0.42269099    0.59427202   -2.19812894
 H          1.85955000    1.23849297   -0.93280798
 H          2.24998093   -1.68405902    1.18955100
 O          2.32435894    0.32163000    1.71236598
 H          3.09366202   -0.63350099    0.02611200
 H          3.25048399    0.52328300    1.88464403
 H         -0.34358701    0.00024200   -2.16398001
 H          1.13041604    1.59210205    1.42469096
 C         -1.75450206   -2.37439609   -0.88263798
 H         -0.81512302   -2.84370804   -0.58036101
 H         -2.03023410   -2.71682692   -1.87904096
 H         -2.54059601   -2.64174294   -0.16936900
 H         -1.32981598    2.09915090    1.77119398
