27
wb97x-d4 ma-def2-tzvp(-f) cpcm(dmso) E: -727.029638771912, G: -726.8382967599999
 C          0.97646302   -0.48163000   -0.11337400
 C          1.01337194    1.02279305   -0.36228099
 O         -0.04588200   -0.78380901    0.84656698
 C          2.27169800   -1.03493702    0.45133501
 H          0.76722401   -0.99619800   -1.05842495
 C         -1.35184598   -0.42376700    0.43136799
 C         -1.43583703    1.08216500    0.19920599
 H         -1.99809301   -0.72009999    1.26526701
 O         -1.73510098   -1.06054604   -0.75084299
 C         -0.36169201    1.51784503   -0.79572397
 H         -2.42279100    1.33318400   -0.19270100
 O         -1.30765200    1.78201306    1.43333304
 O         -0.35557601    2.93089890   -0.96634799
 H         -0.59335297    1.09096098   -1.77468204
 O          1.98380697    1.27225196   -1.37248003
 H          1.30651796    1.52899802    0.56585902
 H          2.16574192   -2.11923599    0.56987202
 O          2.64002204   -0.42937201    1.68613899
 H          3.08225107   -0.84003198   -0.25194901
 H          1.94080603   -0.61606699    2.32407308
 H          1.92514896    2.20945406   -1.59736705
 H         -0.37672001    3.32399106   -0.08269500
 C         -1.85074401   -2.47670507   -0.61366600
 H         -2.25929594   -2.85037494   -1.55194199
 H         -2.52937007   -2.72640610    0.20937200
 H         -0.87486601   -2.93501806   -0.43104699
 H         -0.57423300    1.39964294    1.93313301
