27
wb97x-d4 ma-def2-tzvp(-f) cpcm(dmso) E: -727.027524695351, G: -726.83697149
 C          1.00416994   -0.41715100    0.11162700
 C          1.03272402    1.08812702   -0.14475000
 O         -0.05128900   -0.73099297    1.02193999
 C          2.29819202   -0.90724403    0.73497099
 H          0.84180599   -0.93703598   -0.84129900
 C         -1.33894396   -0.38527900    0.56053299
 C         -1.45143199    1.10710502    0.26419899
 H         -2.00949693   -0.65930802    1.38297999
 O         -1.68981004   -1.06368995   -0.61422598
 C         -0.31979501    1.54912400   -0.66104901
 H         -2.41384792    1.28977501   -0.22776100
 O         -1.39498901    1.79261100    1.50718200
 O         -0.27112600    2.97550702   -0.74587101
 H         -0.48015001    1.11632299   -1.65356100
 O          2.05089808    1.35375404   -1.10364997
 H          1.25439596    1.60678697    0.79634398
 H          3.14080095   -0.53494602    0.14598399
 O          2.34781599   -2.32711792    0.84989798
 H          2.37995005   -0.51079398    1.75008297
 H          2.44415307   -2.69678402   -0.03555400
 H          1.98359704    2.28803396   -1.33736706
 H         -0.91608697    3.26939297   -1.40008605
 C         -1.77941406   -2.47608995   -0.44012600
 H         -2.17360592   -2.88354993   -1.37076199
 H         -2.46008492   -2.71772003    0.38410100
 H         -0.79722703   -2.91200495   -0.23726100
 H         -1.23120201    2.72316909    1.30348098
