27
wb97x-d4 ma-def2-tzvp(-f) cpcm(dmso) E: -727.027508283199, G: -726.83673948
 C          0.95438600   -0.35300201    0.00570100
 C          0.89963800    1.15998101   -0.22537801
 O         -0.01494300   -0.72122401    0.99029100
 C          2.30860806   -0.80623502    0.51847601
 H          0.73764998   -0.86272901   -0.94204700
 C         -1.34651995   -0.42056799    0.63494003
 C         -1.53978896    1.06737900    0.35703599
 H         -1.94001698   -0.71840000    1.50676799
 O         -1.76685596   -1.11199105   -0.50939101
 C         -0.50617802    1.55104697   -0.65028298
 H         -2.54410911    1.21599305   -0.05427000
 O         -1.40905404    1.74867797    1.59755898
 O         -0.64387399    2.96419001   -0.75385600
 H         -0.71407700    1.07962596   -1.61853802
 O          1.76977801    1.56291401   -1.28303599
 H          1.16190696    1.68187904    0.70057899
 H          3.09407306   -0.39556301   -0.12361600
 O          2.41929412   -2.22478390    0.59763497
 H          2.45457792   -0.42628500    1.53264904
 H          2.43283510   -2.57444406   -0.30115601
 H          2.62582707    1.80015695   -0.91140199
 H          0.11058200    3.28768897   -1.26283002
 C         -1.79599202   -2.52633595   -0.32611799
 H         -2.40057993   -2.78600502    0.55032098
 H         -0.78696698   -2.92842603   -0.20102100
 H         -2.24937105   -2.95114899   -1.22121501
 H         -1.31083095    2.68760610    1.39219999
