55
wb97x-d4 ma-def2-tzvp(-f) cpcm(dmso) E: -1285.247220438664, G: -1284.8263462
 C          1.51303601    2.75285196    1.05797398
 C          1.42580795    1.38592899    1.72562003
 O          2.25065708    1.36522198    2.87749600
 C          1.80622303    0.26727399    0.76117700
 O          1.63537395   -0.94923699    1.44529998
 C          0.96127301    0.38030601   -0.51569903
 C          1.06667399    1.79754603   -1.07778704
 C          0.21439300    2.06256890   -2.30294704
 O          0.49861100    3.34645510   -2.85043502
 O          0.67759299    2.75302410   -0.08925000
 O          1.24027395   -0.53511202   -1.49250996
 O          2.84429789    3.03369594    0.74857301
 H          2.11656499    1.96001196   -1.35180902
 H          1.09964502    3.53138304    1.70868504
 H          2.85399604    0.39441901    0.45583200
 H         -0.16806801    0.20789100   -0.15907200
 C          3.03821611    4.36475706    0.27303499
 H          2.27041292    0.44587299    3.17585993
 H          0.44507301    1.32708097   -3.07287192
 H         -0.84760201    1.98524594   -2.04691100
 H          1.31534195   -1.48784494   -1.15237105
 H          2.21192193   -1.64705896    1.03117597
 H          0.33578300    3.99728990   -2.15641403
 H          2.61886311    5.08871889    0.98054397
 H          2.57316709    4.50525522   -0.70681202
 H          4.11383200    4.51631594    0.19006500
 H          0.37637800    1.24622798    2.01511097
 C         -3.94094801    0.22995301    0.48754799
 C         -2.48114109    0.76334298    0.48784700
 C         -3.90228200   -1.29734600    0.36070901
 C         -2.96243501   -1.85284197    1.43509495
 C         -1.51614404   -1.38540804    1.11490095
 N         -1.61424899   -0.34943399    0.07667600
 H         -4.49621582    0.66519099   -0.34597701
 H         -2.34670091    1.58507299   -0.21349600
 H         -4.90464020   -1.71103001    0.48355001
 H         -3.26155210   -1.49089706    2.42105794
 H         -0.89849502   -2.18968391    0.71904701
 H         -4.43128109    0.52946901    1.41531897
 H         -2.15995598    1.08188701    1.47902000
 C         -3.34201407   -1.66792202   -1.01736200
 H         -2.99119091   -2.94374800    1.45069098
 H         -1.02061999   -0.95357102    1.98147702
 C         -2.00187802   -0.90824902   -1.22278202
 H         -4.03664207   -1.38537598   -1.81011200
 H         -3.17524409   -2.74528790   -1.07937002
 H         -2.10929108   -0.08033400   -1.92214596
 H         -1.20394695   -1.56702495   -1.56407595
 O          3.08657408   -2.89592290    0.41329601
 O          1.39622903   -3.05600595   -1.03674304
 C          2.77766991   -4.97418594   -0.72289097
 C          2.38881993   -3.53796005   -0.41791499
 H          3.48989606   -4.96564102   -1.55356801
 H          1.90714204   -5.55548096   -1.02779996
 H          3.26280403   -5.43765402    0.13644600
