55
wb97x-d4 ma-def2-tzvp(-f) cpcm(dmso) E: -1285.241737648502, G: -1284.8197642
 C          1.67505598    2.58011603    0.92414302
 C          1.37748396    1.36251605    1.79635894
 O          2.14930296    1.40864801    2.98452711
 C          1.58115101    0.05607100    1.02957499
 O          1.14653301   -0.99543601    1.86231399
 C          0.84547001    0.10845100   -0.32303700
 C          1.18572795    1.39752698   -1.07397294
 C          0.45977500    1.61003304   -2.39135003
 O         -0.91453397    1.93195903   -2.21910596
 O          0.91966200    2.54133201   -0.26814401
 O          1.05751395   -0.96688098   -1.14392996
 O          3.05452991    2.59691310    0.68358499
 H          2.25823092    1.33945203   -1.30079603
 H          1.36636305    3.50009298    1.43140602
 H          2.65006399   -0.05560100    0.79307902
 H         -0.33289799    0.11016100   -0.04511200
 C          3.51096010    3.80767488    0.08085000
 H          3.07034111    1.54114103    2.72255611
 H          0.97083598    2.40854597   -2.93971610
 H          0.50807202    0.69629401   -2.98377705
 H          1.27821600   -1.81222200   -0.62989098
 H          1.38297796   -1.84577596    1.43561101
 H         -0.95584601    2.76147199   -1.72791100
 H          3.20903492    4.67122889    0.68305999
 H          3.11339903    3.91341996   -0.93224299
 H          4.59800386    3.75022602    0.04150600
 H          0.33028501    1.41981602    2.10465503
 C         -4.06922293    0.37478200    0.65541798
 C         -2.59334207    0.83699602    0.48877200
 C         -4.17238379   -1.10571396    0.27655300
 C         -3.29488397   -1.92108500    1.22917795
 C         -1.83780706   -1.38487995    1.15101004
 N         -1.79876697   -0.34171501    0.11571400
 H         -4.71302795    0.97834802    0.01292600
 H         -2.48431396    1.57400799   -0.30273500
 H         -5.21026611   -1.43697405    0.34588701
 H         -3.65915489   -1.83188701    2.25433207
 H         -1.13061595   -2.16185498    0.86723602
 H         -4.38890314    0.52225399    1.68885505
 H         -2.18215394    1.23760402    1.41483998
 C         -3.65519691   -1.29632401   -1.15239406
 H         -3.31667304   -2.97719193    0.95311999
 H         -1.51195896   -0.93776298    2.08690596
 C         -2.16024399   -0.87148601   -1.20515203
 H         -4.23502493   -0.68816000   -1.84958899
 H         -3.75007701   -2.34083509   -1.45469105
 H         -1.98321700   -0.08686400   -1.93616605
 H         -1.50204504   -1.71458304   -1.41015100
 O          1.63847399   -3.06620502    0.22380400
 O          3.23355794   -4.49977684    0.83299500
 C          3.50064206   -3.33142495   -1.24328995
 C          2.75477505   -3.67539597    0.03826400
 H          3.81631804   -2.28528309   -1.20178199
 H          2.83437800   -3.43815994   -2.10228801
 H          4.37542486   -3.96760988   -1.37181103
