55
wb97x-d4 ma-def2-tzvp(-f) cpcm(dmso) E: -1285.240677689871, G: -1284.81969305
 C          1.60643196    2.71139908    0.73268503
 C          1.28638005    1.48038304    1.57120097
 O          2.05100799    1.51465702    2.76375890
 C          1.52997696    0.19074500    0.79502499
 O          1.07747900   -0.87076402    1.61567402
 C          0.81633800    0.25565600   -0.56139302
 C          1.12650096    1.56634104   -1.28796506
 C          0.35213399    1.76318097   -2.58667111
 O          0.76659697    0.86068898   -3.60441089
 O          0.82435697    2.67845988   -0.45246601
 O          1.02863801   -0.80995101   -1.39527702
 O          2.97460008    2.74851489    0.46605399
 H          2.19721889    1.55319500   -1.52612698
 H          1.29235494    3.62228894    1.25360501
 H          2.60479903    0.08881100    0.59333599
 H         -0.36041600    0.26326600   -0.28190401
 C          3.39162397    3.96812892   -0.14718901
 H          1.85735404    0.69916898    3.24376011
 H         -0.72313899    1.67929900   -2.40096307
 H          0.55374902    2.77312207   -2.94881701
 H          1.31552303   -1.66387498   -0.89912701
 H          1.37526500   -1.71296895    1.20922506
 H          0.78250903   -0.02320100   -3.21024299
 H          4.47911310    3.93680811   -0.20223901
 H          3.07861209    4.82613897    0.45781201
 H          2.97745490    4.06511879   -1.15465498
 H          0.21870500    1.54218197    1.81064796
 C         -3.45625997   -0.78241903    1.69109797
 C         -2.12015009   -0.03994700    1.42002702
 C         -4.13137913   -1.07280695    0.34695101
 C         -3.28338289   -2.09649301   -0.41663799
 C         -1.81186295   -1.60241699   -0.42465001
 N         -1.82032096   -0.19348399   -0.01351700
 H         -4.09218884   -0.15572800    2.31858206
 H         -2.19679189    1.02754200    1.62656295
 H         -5.13990498   -1.45882797    0.50397301
 H         -3.32725096   -3.07557106    0.06331300
 H         -1.36293101   -1.66606998   -1.41534805
 H         -3.26437306   -1.71467197    2.22696710
 H         -1.29301703   -0.46123001    1.98632300
 C         -4.17781305    0.22679600   -0.46371299
 H         -3.64990997   -2.20392203   -1.43980706
 H         -1.19013500   -2.14881206    0.28339699
 C         -2.72460389    0.61348498   -0.84736902
 H         -4.63520288    1.02385402    0.12623300
 H         -4.76456594    0.09917000   -1.37495601
 H         -2.51655006    1.66665804   -0.66115302
 H         -2.50895596    0.37974000   -1.88932502
 O          1.75233805   -2.84132600   -0.06402900
 O          3.59883308   -3.00356007   -1.31044495
 C          3.56514502   -4.09642792    0.82512897
 C          2.95156789   -3.25748205   -0.28373301
 H          2.86909699   -4.88050222    1.12982202
 H          3.73948407   -3.45489812    1.69368196
 H          4.50992393   -4.53745317    0.50928903
