55
wb97x-d4 ma-def2-tzvp(-f) cpcm(dmso) E: -1285.241780062817, G: -1284.8195949800001
 C          1.65075505    2.63961601    1.32626998
 C          1.77896905    1.17015803    1.72693300
 O          2.73262095    1.02649999    2.76634908
 C          2.09864807    0.27846000    0.52642101
 O          2.05401397   -1.05915403    0.97196400
 C          1.12466705    0.58243102   -0.62742501
 C          1.11317003    2.08560395   -0.91211498
 C          0.24288701    2.54424310   -2.05947208
 O         -1.13129902    2.30713201   -1.77108598
 O          0.73738801    2.80064297    0.26254299
 O          1.34895003   -0.10706500   -1.78803802
 O          2.93629003    3.09641099    1.00597203
 H          2.14162397    2.35171008   -1.19107604
 H          1.23598003    3.22539902    2.15315008
 H          3.10299492    0.52772802    0.15145500
 H          0.03316700    0.25843000   -0.20664200
 C          3.01498294    4.51391697    0.86034000
 H          3.53592706    1.48176205    2.47946000
 H          0.42357200    3.61414289   -2.20943093
 H          0.55202299    2.00763512   -2.96087599
 H          1.58082795   -1.07906306   -1.63110304
 H          2.17818689   -1.66533804    0.21235400
 H         -1.64792502    2.60039401   -2.52997088
 H          2.63814211    5.01077700    1.76076901
 H          2.44144106    4.84957218   -0.00787700
 H          4.06682301    4.75925589    0.71884203
 H          0.81980997    0.85334402    2.14260101
 C         -3.17055511   -1.50881803   -1.04300797
 C         -1.77258599   -0.85285801   -1.22383797
 C         -3.49801707   -1.56767094    0.45108199
 C         -3.54450798   -0.14184500    1.00995898
 C         -2.18139601    0.55388898    0.73441702
 N         -1.29773295   -0.43611801    0.10225800
 H         -3.16036296   -2.51383090   -1.46941495
 H         -1.04606199   -1.55400097   -1.63250101
 H         -4.46037006   -2.05996799    0.60388798
 H         -4.34570599    0.42621100    0.53321099
 H         -1.70150006    0.88975799    1.65306497
 H         -3.92475104   -0.92381197   -1.57343102
 H         -1.81429100    0.03539400   -1.84965801
 C         -2.38949895   -2.34544992    1.16615605
 H         -3.73894811   -0.16391300    2.08411098
 H         -2.27564907    1.39294100    0.05049700
 C         -1.04587805   -1.58669901    0.98334301
 H         -2.30224895   -3.35081697    0.74901098
 H         -2.61283898   -2.43878388    2.23063207
 H         -0.28754300   -2.20785904    0.51552498
 H         -0.65525103   -1.20699096    1.92530596
 O          2.01403499   -2.55310702   -1.28870296
 O          0.28660300   -3.39354205   -2.42741895
 C          1.22203803   -4.70423698   -0.65193301
 C          1.15120900   -3.47068095   -1.53830302
 H          1.02873695   -4.40959501    0.38339999
 H          2.22720504   -5.13029909   -0.68975198
 H          0.49122801   -5.45195198   -0.95821297
