55
wb97x-d4 ma-def2-tzvp(-f) cpcm(dmso) E: -1285.241910349266, G: -1284.8195726000001
 C          1.62913501    2.62781000    1.34786797
 C          1.75288904    1.15736306    1.74666405
 O          2.69425988    1.01163399    2.79690599
 C          2.08598804    0.26647499    0.54889202
 O          2.02695298   -1.07150400    0.99150997
 C          1.12944305    0.57606697   -0.61834002
 C          1.12752199    2.07955408   -0.89935702
 C          0.28147599    2.54407310   -2.06197500
 O         -1.09677100    2.28806210   -1.81213999
 O          0.73194200    2.79137492    0.27094200
 O          1.36489403   -0.11322900   -1.77661896
 O          2.91907406    3.08678889    1.04841900
 H          2.16186690    2.34382796   -1.15747595
 H          1.20161295    3.21097589    2.17011499
 H          3.09708500    0.51083100    0.18921700
 H          0.03355500    0.25476801   -0.20995700
 C          2.99672389    4.50435019    0.90265799
 H          3.49878907    1.47253203    2.52274990
 H          0.45400301    3.61791396   -2.19234204
 H          0.61939198    2.02362299   -2.96248293
 H          1.60241795   -1.08362401   -1.61655200
 H          2.17972708   -1.67641199    0.23569900
 H         -1.59726000    2.58473492   -2.58039808
 H          2.60414290    5.00119305    1.79635406
 H          2.43639398    4.83771610    0.02499800
 H          4.05010080    4.75209999    0.77784097
 H          0.78907400    0.83986300    2.15081906
 C         -3.18123388   -1.48070204   -1.08224499
 C         -1.76614702   -0.85734099   -1.24605298
 C         -3.52146506   -1.54540896    0.40884700
 C         -3.55880094   -0.12236700    0.97542000
 C         -2.19337893    0.56741500    0.69610202
 N         -1.30785894   -0.43332899    0.08358400
 H         -3.19118905   -2.48128200   -1.51885605
 H         -1.04687905   -1.57967496   -1.63021398
 H         -4.48940086   -2.02986097    0.55110699
 H         -4.35890102    0.45283499    0.50554597
 H         -1.71814597    0.91680700    1.61212504
 H         -3.91769695   -0.87297899   -1.61214495
 H         -1.77684903    0.02218000   -1.88525796
 C         -2.42568398   -2.33718801    1.12830806
 H         -3.74854112   -0.14946701    2.05035090
 H         -2.28259897    1.39619601   -0.00087800
 C         -1.07731104   -1.57981098    0.97584802
 H         -2.33700895   -3.33689308    0.69807702
 H         -2.66346788   -2.44488311    2.18828297
 H         -0.30707499   -2.20327902    0.53080302
 H         -0.71106100   -1.19518006    1.92568696
 O          0.32259101   -3.41049695   -2.39539504
 O          2.05162096   -2.55053902   -1.27386403
 C          1.28710902   -4.70833778   -0.62593102
 C          1.19671702   -3.47787690   -1.51488495
 H          2.30995607   -5.09104919   -0.62004799
 H          0.60010499   -5.48604488   -0.95792198
 H          1.03816199   -4.42030191    0.39959499
