55
wb97x-d4 ma-def2-tzvp(-f) cpcm(dmso) E: -1285.240677229573, G: -1284.81955345
 C          1.65664995    2.60628510    0.87879300
 C          1.30548894    1.39830196    1.73932004
 O          2.06211305    1.44092298    2.93665791
 C          1.52343702    0.08605200    0.99370497
 O          1.03104305   -0.94402897    1.83098197
 C          0.83081001    0.13973300   -0.37307301
 C          1.19339895    1.42286301   -1.12207103
 C          0.46333399    1.60348499   -2.44822502
 O          0.90396798    0.67745203   -3.43380809
 O          0.89423501    2.55951190   -0.31899199
 O          1.02242899   -0.95251399   -1.17773497
 O          3.02926707    2.61971903    0.63377899
 H          2.26996899    1.37991595   -1.32829106
 H          1.34669495    3.53226900    1.37495399
 H          2.59773302   -0.04959500    0.80885702
 H         -0.35000601    0.18995801   -0.11635800
 C          3.47152710    3.82078195    0.00164600
 H          1.83530796    0.64823198    3.43967605
 H         -0.61821902    1.53200996   -2.29816508
 H          0.68709201    2.60415196   -2.82272601
 H          1.27192402   -1.79894197   -0.65284801
 H          1.31167495   -1.80373597    1.45088899
 H          0.87876302   -0.20052201   -3.02738500
 H          3.16069889    4.69526291    0.58377302
 H          3.07369804    3.90189695   -1.01378000
 H          4.55920696    3.77453709   -0.03604800
 H          0.23788600    1.48861098    1.96981204
 C         -3.35119009   -2.06561899   -0.25965500
 C         -1.86216998   -1.62676704   -0.25250801
 C         -4.17146587   -0.99855500    0.47426000
 C         -4.15821695    0.28794900   -0.35840499
 C         -2.68659401    0.61219102   -0.72935802
 N         -1.82472897   -0.21101899    0.13317201
 H         -3.43851089   -3.03427911    0.23527500
 H         -1.27282596   -2.18255496    0.47566801
 H         -5.19567490   -1.34463000    0.62263799
 H         -4.73795795    0.16771300   -1.27513003
 H         -2.44132900    1.66053498   -0.56181598
 H         -3.70612001   -2.17626405   -1.28654599
 H         -1.40047204   -1.72598803   -1.23431504
 C         -3.50532508   -0.70942700    1.82313800
 H         -4.59191704    1.11163199    0.21251300
 H         -2.46670008    0.34799099   -1.76310897
 C         -2.13962507   -0.02026900    1.55895305
 H         -3.35465193   -1.63856697    2.37721705
 H         -4.12686396   -0.04946700    2.43057990
 H         -1.33649004   -0.46014401    2.14540601
 H         -2.18123007    1.05287004    1.74479198
 O          1.65254903   -2.97726798    0.20530000
 O          3.28359103   -4.36920023    0.81093001
 C          3.51768804   -3.19421697   -1.26670003
 C          2.78668499   -3.55733490    0.01720100
 H          2.86538911   -3.36851597   -2.12564898
 H          4.43271923   -3.77488494   -1.37479103
 H          3.76130605   -2.12852597   -1.25240505
