55
wb97x-d4 ma-def2-tzvp(-f) cpcm(dmso) E: -1285.240294190341, G: -1284.81952073
 C          1.65678000    2.52587008    0.81325400
 C          1.25499499    1.33872700    1.68847799
 O          1.96753204    1.36251605    2.91341591
 C          1.42153502    0.00536600    0.95622897
 O          0.86132097   -1.01089203    1.76016998
 C          0.79127401    0.07249300   -0.44677299
 C          1.27917194    1.31757903   -1.18839502
 C          0.72872800    1.52382004   -2.58573389
 O         -0.66289097    1.80320799   -2.60512090
 O          0.98829198    2.48877907   -0.43142200
 O          0.97615498   -1.03718305   -1.22142506
 O          3.04918599    2.48901796    0.67400402
 H          2.36644292    1.19967699   -1.28797901
 H          1.34572196    3.46652293    1.27947295
 H          2.49525094   -0.17864300    0.80229199
 H         -0.41544700    0.16622201   -0.24086501
 C          3.59475589    3.66983390    0.08651600
 H          2.90623212    1.44647205    2.69795990
 H          1.29308605    2.33780289   -3.05459690
 H          0.88317102    0.61541402   -3.16811705
 H          1.21797395   -1.85822499   -0.67696702
 H          1.17201400   -1.87316298    1.40654099
 H         -0.80360800    2.61851406   -2.10891795
 H          4.67873001    3.57176590    0.13038400
 H          3.28176999    4.55547714    0.64975297
 H          3.27800894    3.76977706   -0.95519799
 H          0.20247200    1.46675098    1.94698095
 C         -3.31006193   -2.21563005   -0.07292300
 C         -1.85036600   -1.70004499   -0.17295200
 C         -4.18112516   -1.09769797    0.50772202
 C         -4.22595692    0.05395100   -0.49963000
 C         -2.77031803    0.44165999   -0.87691200
 N         -1.86399305   -0.24827901    0.05527000
 H         -3.33434105   -3.09943390    0.56716502
 H         -1.20819104   -2.14310098    0.58557099
 H         -5.18874979   -1.46810997    0.70465499
 H         -4.76345015   -0.24312399   -1.40211201
 H         -2.59823799    1.51186895   -0.78446102
 H         -3.67683005   -2.50329089   -1.06053603
 H         -1.41720700   -1.88363302   -1.15555096
 C         -3.53898191   -0.59080702    1.80192399
 H         -4.74093819    0.91422999   -0.06622900
 H         -2.50810289    0.12895800   -1.88474405
 C         -2.18451405    0.08312100    1.45480204
 H         -3.37550092   -1.42154896    2.49195099
 H         -4.18702602    0.13599400    2.29510689
 H         -1.37742400   -0.28471601    2.08242989
 H         -2.23814201    1.16934299    1.52796602
 O          3.38427711   -4.13813114    1.09216404
 O          1.63521004   -3.05028009    0.23741899
 C          3.58718991   -3.23703194   -1.11968994
 C          2.83436298   -3.51058507    0.17396900
 H          3.79730511   -2.16565704   -1.18513203
 H          2.96670103   -3.50265598   -1.97815800
 H          4.52575302   -3.78886700   -1.15302503
