55
wb97x-d4 ma-def2-tzvp(-f) cpcm(dmso) E: -1285.239786986809, G: -1284.81944044
 C          1.33279097    2.89323902    0.18307000
 C          0.68110001    2.48362589    1.50436997
 O          1.00547397    3.40629792    2.53040099
 C          1.08657205    1.05946100    1.85241401
 O          0.39097899    0.65312600    3.01813006
 C          0.81383300    0.11165600    0.67948198
 C          1.43652201    0.63634801   -0.61343098
 C          1.07470703   -0.15677901   -1.86509097
 O          2.09403992   -0.07876900   -2.85076404
 O          1.00808597    1.98242795   -0.84292400
 O          1.16668200   -1.15902102    1.05357301
 O          2.71239805    2.98460793    0.41139701
 H          2.52449799    0.60653299   -0.48506901
 H          0.93933201    3.85758591   -0.15577801
 H          2.17005610    1.02916598    2.03088593
 H         -0.36566401    0.13331400    0.52259701
 C          3.42359996    3.59289193   -0.66655201
 H          1.96674299    3.50996208    2.52980399
 H          0.88058400   -1.19966900   -1.60851395
 H          0.16469100    0.26721501   -2.29508805
 H          1.52103198   -1.77104294    0.32184100
 H          0.66223502   -0.25312701    3.21136498
 H          2.80905890   -0.65167701   -2.50845909
 H          4.45802402    3.70007396   -0.34242201
 H          3.00413108    4.57938290   -0.89171100
 H          3.38386106    2.96699190   -1.56203496
 H         -0.40348101    2.52746701    1.37733197
 C         -3.96536803   -0.48857000    1.63553095
 C         -2.43433905   -0.24940801    1.75735795
 C         -4.27622318   -0.90715897    0.19566400
 C         -3.35445595   -2.07230210   -0.18012200
 C         -1.89727104   -1.53812003   -0.24088700
 N         -1.89472497   -0.21557200    0.39143601
 H         -4.50642776    0.42529199    1.88979995
 H         -2.20016003    0.69686198    2.23959899
 H         -5.32108593   -1.20905697    0.10644000
 H         -3.43317199   -2.86978292    0.56155401
 H         -1.55744004   -1.41603696   -1.26828504
 H         -4.26260519   -1.26696098    2.34031892
 H         -1.93213296   -1.05569601    2.28998208
 C         -3.98756289    0.27931699   -0.73224598
 H         -3.62146497   -2.48497105   -1.15433204
 H         -1.19866800   -2.17724109    0.29965100
 C         -2.55191898    0.80151403   -0.43882301
 H         -4.70201921    1.08645904   -0.56240499
 H         -4.06446981   -0.02950900   -1.77684903
 H         -2.55799103    1.73486495    0.12282300
 H         -1.97159505    0.93310302   -1.35074604
 O          2.06653810   -3.00226212   -0.47207001
 O          3.70084906   -1.85662103   -1.48380303
 C          3.63566804   -4.23239803   -1.76609504
 C          3.10575104   -2.92503500   -1.19520199
 H          2.97932410   -4.54341221   -2.58435702
 H          3.61453795   -5.01738310   -1.00812197
 H          4.64654112   -4.11120415   -2.15463209
