55
wb97x-d4 ma-def2-tzvp(-f) cpcm(dmso) E: -1285.24551898782, G: -1284.82489893
 C          1.42148900    2.87026405    0.78022701
 C          1.21637297    1.62746799    1.64404297
 O          1.96441901    1.72955298    2.84476209
 C          1.54496801    0.34775299    0.87466800
 O          1.13884306   -0.76968598    1.62707698
 C          0.87759298    0.35420901   -0.50895602
 C          1.10192096    1.67389297   -1.24632704
 C          0.34280300    1.77482498   -2.55777311
 O          0.77840602    2.87869906   -3.34653592
 O          0.69873202    2.76872706   -0.42789200
 O          1.22722805   -0.69650602   -1.31319904
 O          2.80037689    3.01187396    0.57522398
 H          2.17717695    1.74320805   -1.45756197
 H          1.01975000    3.75701499    1.28199005
 H          2.62917709    0.31584400    0.69566900
 H         -0.29439700    0.26454401   -0.27243999
 C          3.16441989    4.26688623    0.00198900
 H          2.87147999    1.95311701    2.59619093
 H          0.44836599    0.83558202   -3.10634804
 H         -0.71485299    1.94595802   -2.35304809
 H          1.38130701   -1.56637299   -0.82429397
 H          1.81132698   -1.49370897    1.50060904
 H          1.66886401    2.68658400   -3.66373706
 H          4.25307083    4.30582190   -0.00708200
 H          2.77178502    5.09093714    0.60739899
 H          2.78643990    4.35408401   -1.02035201
 H          0.16556901    1.60130596    1.93928504
 C         -3.43838501   -0.83636498    1.61625099
 C         -2.12136602   -0.05322600    1.35304594
 C         -3.97847104   -1.35060298    0.27802101
 C         -2.99429798   -2.37804890   -0.29057199
 C         -1.57903397   -1.73778796   -0.32468301
 N         -1.73738301   -0.30748600   -0.04253400
 H         -4.16084194   -0.17346200    2.09556103
 H         -2.25529504    1.02216101    1.46675503
 H         -4.95966482   -1.80744803    0.41831401
 H         -2.96643806   -3.27377892    0.33225399
 H         -1.10632098   -1.84041703   -1.30077803
 H         -3.24469209   -1.67282498    2.29097199
 H         -1.30892599   -0.38943899    1.99346399
 C         -4.07960892   -0.17446300   -0.69772899
 H         -3.29649091   -2.67381001   -1.29724801
 H         -0.91826200   -2.14954710    0.43552899
 C         -2.64515400    0.34812599   -0.99224001
 H         -4.68424797    0.62486601   -0.26428801
 H         -4.54704809   -0.48629001   -1.63325703
 H         -2.56722093    1.42562795   -0.85174799
 H         -2.31689811    0.08713000   -1.99784899
 O          2.90002298   -2.69344497    1.30021298
 O          1.69669104   -3.11675501   -0.53212303
 C          3.04972410   -4.87583494    0.34672701
 C          2.51700997   -3.45263195    0.36762500
 H          3.08023405   -5.26725101   -0.67040199
 H          2.37125802   -5.50236177    0.93385899
 H          4.03846979   -4.92651510    0.80327302
