55
wb97x-d4 ma-def2-tzvp(-f) cpcm(dmso) E: -1285.241644331712, G: -1284.81941144
 C          1.66396701    2.81364489    0.45090199
 C          1.24847198    1.80882204    1.51803005
 O          1.90398502    2.12032795    2.73524189
 C          1.54589105    0.37972400    1.08348203
 O          1.06958604   -0.45199999    2.12189507
 C          0.91464603    0.10680200   -0.29124400
 C          1.30558598    1.21072102   -1.27710700
 C          0.66070998    1.13043594   -2.64973092
 O         -0.72203702    1.46277797   -2.62663889
 O          0.99270201    2.50174189   -0.75799698
 O          1.20605600   -1.11460304   -0.83763599
 O          3.05156803    2.78907299    0.30867100
 H          2.39007211    1.11675704   -1.41869402
 H          1.32316601    3.82132912    0.71200401
 H          2.63083792    0.25671899    0.95976800
 H         -0.28421000    0.13442700   -0.11457500
 C          3.54406309    3.81218696   -0.55568397
 H          1.68407202    1.41347098    3.35604000
 H          1.20253301    1.80311203   -3.32315707
 H          0.74436599    0.11325400   -3.03289199
 H          1.32252204   -1.83104897   -0.12849300
 H          1.30050600   -1.38311696    1.91693902
 H         -0.79428202    2.36398697   -2.28864193
 H          3.23538709    3.63660192   -1.58991098
 H          4.63107491    3.78308105   -0.49038899
 H          3.18254590    4.79404783   -0.23087600
 H          0.16250800    1.90906405    1.63881397
 C         -3.26098490   -1.77179694    1.27835798
 C         -1.84737897   -1.12754095    1.25748599
 C         -4.10866117   -1.12229705    0.18116400
 C         -3.51060295   -1.49077797   -1.18032598
 C         -1.99779606   -1.13538098   -1.16850102
 N         -1.74567997   -0.32310700    0.02969400
 H         -3.71182203   -1.61488295    2.25986099
 H         -1.68419099   -0.46293199    2.10300899
 H         -5.14147902   -1.46914196    0.24617900
 H         -3.62836289   -2.55748105   -1.37834501
 H         -1.70933199   -0.55126601   -2.03853512
 H         -3.18466902   -2.84792495    1.10908306
 H         -1.05855405   -1.87664998    1.23741102
 C         -4.05116796    0.39914599    0.35329899
 H         -4.01620007   -0.94034600   -1.97672701
 H         -1.37073898   -2.02305508   -1.09913397
 C         -2.59652400    0.87571198    0.08412600
 H         -4.35405397    0.67419702    1.36573803
 H         -4.72575808    0.89368200   -0.34791699
 H         -2.22390008    1.52109003    0.87873203
 H         -2.50381589    1.38620698   -0.87108099
 O          1.50184405   -2.86102891    1.02567804
 O          2.87080598   -4.30646896    2.03053308
 C          3.43881392   -3.56244206   -0.17615999
 C          2.55457401   -3.59830308    1.06215894
 H          3.86444092   -2.56055498   -0.27961901
 H          2.84002495   -3.75643110   -1.06893003
 H          4.24487877   -4.29156399   -0.10535600
