55
wb97x-d4 ma-def2-tzvp(-f) cpcm(dmso) E: -1285.239905963774, G: -1284.8191910500002
 C          1.75560105    2.52815008    0.89544398
 C          1.34490502    1.29927695    1.69740200
 O          2.09262109    1.25275600    2.89991498
 C          1.51865399    0.01726800    0.88880098
 O          1.03204799   -1.04183996    1.69127095
 C          0.80641103    0.14640000   -0.46660301
 C          1.23617196    1.44642699   -1.15374303
 C          0.58691299    1.74027002   -2.49142599
 O         -0.80132401    2.01749992   -2.38987708
 O          1.00012505    2.56719303   -0.30562699
 O          0.96873802   -0.90890902   -1.31508398
 O          3.12913990    2.48812604    0.65676600
 H          2.31349301    1.34081304   -1.33763301
 H          1.48653400    3.44534206    1.43038297
 H          2.58591509   -0.12851600    0.67294002
 H         -0.38890001    0.20604201   -0.18465300
 C          3.62690401    3.68175006    0.05336200
 H          1.85813701    0.42622000    3.34159708
 H          1.11744595    2.58405900   -2.94697404
 H          0.69582701    0.87191701   -3.14151692
 H          1.22441399   -1.76546705   -0.82712603
 H          1.29667795   -1.88914597    1.27285802
 H         -0.90316999    2.79351902   -1.82577598
 H          4.71278191    3.59642601    0.03584700
 H          3.33678699    4.55840683    0.64295399
 H          3.25255799    3.79270911   -0.96813798
 H          0.27982199    1.42413998    1.92417705
 C         -3.28560901   -2.16616201   -0.24457400
 C         -1.82473898   -1.65148699   -0.30202499
 C         -4.10966396   -1.17861295    0.58844602
 C         -4.21507215    0.13637900   -0.18932100
 C         -2.79047608    0.55675602   -0.63888502
 N         -1.82448399   -0.24613900    0.13024300
 H         -3.29586601   -3.16192102    0.20229100
 H         -1.17135203   -2.20135403    0.37357000
 H         -5.10254478   -1.58539295    0.78768897
 H         -4.84726000    0.01862600   -1.07137096
 H         -2.59468889    1.60850203   -0.44079801
 H         -3.69906712   -2.24419999   -1.25259805
 H         -1.41189504   -1.69846296   -1.30900097
 C         -3.36932802   -0.90665400    1.90144300
 H         -4.65492010    0.91269302    0.44099501
 H         -2.61703992    0.35997000   -1.69391704
 C         -2.06987596   -0.12321800    1.57984805
 H         -3.12580895   -1.84855402    2.39854693
 H         -3.98544788   -0.31549400    2.58133602
 H         -1.20922804   -0.52527201    2.10752606
 H         -2.16932011    0.93924701    1.80313301
 O          1.62544501   -3.01234698   -0.01058100
 O          3.25308990   -4.43885088    0.52286702
 C          3.50937390   -3.13107800   -1.47001398
 C          2.76059198   -3.57882404   -0.22297899
 H          2.84327698   -3.14734411   -2.33527994
 H          4.37642622   -3.76370001   -1.65547502
 H          3.84025693   -2.09793711   -1.33065295
