55
wb97x-d4 ma-def2-tzvp(-f) cpcm(dmso) E: -1285.240657004139, G: -1284.81908266
 C          1.66408801    2.70986700    0.92797500
 C          1.38174796    1.40695500    1.66379905
 O          2.19982505    1.33768201    2.81867290
 C          1.59013999    0.19433799    0.76298302
 O          1.16936600   -0.93782300    1.50306499
 C          0.82091099    0.37691301   -0.55251598
 C          1.09173203    1.75348401   -1.16656697
 C          0.25670701    2.07604909   -2.40155792
 O          0.59697002    1.26142395   -3.51622796
 O          0.82860303    2.78150892   -0.21776199
 O          1.01088703   -0.60416698   -1.48798394
 O          3.01890707    2.77523804    0.60349399
 H          2.15025210    1.76751602   -1.45411694
 H          1.37510800    3.56880093    1.54311705
 H          2.65514398    0.11268900    0.50776100
 H         -0.34548500    0.33624700   -0.22422101
 C          3.40748000    4.04378891    0.07676100
 H          2.02297091    0.48580199    3.23777699
 H         -0.80905300    1.99606001   -2.16516590
 H          0.46161199    3.11052990   -2.68363094
 H          1.29012001   -1.50930905   -1.07864499
 H          1.42504001   -1.74082005    1.00326896
 H          0.62702698    0.34639099   -3.20179105
 H          4.49236298    4.02575779   -0.01948600
 H          3.11201406    4.84788084    0.75952899
 H          2.95691490    4.21863508   -0.90424198
 H          0.32594201    1.44233406    1.95529997
 C         -3.16130710   -2.16639304   -0.27982301
 C         -1.71692705   -1.59818399   -0.34289899
 C         -4.04812384   -1.15495002    0.45412299
 C         -4.15684509    0.11049200   -0.40159601
 C         -2.72151399    0.57976103   -0.76763201
 N         -1.77847898   -0.18771800    0.05998800
 H         -3.14574599   -3.12293196    0.24534599
 H         -1.04517400   -2.10819793    0.34501600
 H         -5.03852081   -1.57953799    0.62722600
 H         -4.71360207   -0.08853500   -1.31883895
 H         -2.57316589    1.63877201   -0.56004697
 H         -3.54250598   -2.33971000   -1.28810894
 H         -1.30073202   -1.64547706   -1.34859800
 C         -3.38800192   -0.79205102    1.78796196
 H         -4.67848682    0.89602000    0.14898100
 H         -2.48393893    0.37840399   -1.81190097
 C         -2.06140494   -0.03662700    1.49611294
 H         -3.18302989   -1.69638002    2.36497808
 H         -4.04289579   -0.15242800    2.38193297
 H         -1.22329998   -0.45334801    2.04997301
 H         -2.14218497    1.02976298    1.70578897
 O          1.66923702   -2.78777695   -0.39004999
 O          3.52123594   -2.82095599   -1.63930702
 C          3.26975012   -4.47989702    0.07625900
 C          2.81499290   -3.27182603   -0.72530198
 H          4.26493311   -4.80240393   -0.22769500
 H          2.55967402   -5.29733276   -0.07240900
 H          3.26873112   -4.23432684    1.14093006
