55
wb97x-d4 ma-def2-tzvp(-f) cpcm(dmso) E: -1285.240234111908, G: -1284.8188637800001
 C          1.21489096    2.94832993    0.94871998
 C          1.03996003    1.99211800    2.13011408
 O          1.49875402    2.58642793    3.33219600
 C          1.71408105    0.65134698    1.86236799
 O          1.29068398   -0.26093501    2.86321712
 C          1.39509404    0.11614800    0.46529400
 C          1.66514301    1.19227397   -0.59248799
 C          1.38599205    0.85734802   -2.05980206
 O          2.46850300    0.19426300   -2.68567610
 O          0.85570401    2.32618809   -0.26862401
 O          2.00748110   -1.09878099    0.32207000
 O          2.54583097    3.37974191    0.95643198
 H          2.72628593    1.46003902   -0.51840103
 H          0.53642797    3.80236292    1.04448903
 H          2.80422306    0.78511697    1.90766597
 H          0.19503701   -0.06760400    0.47310001
 C          2.79313707    4.47021103    0.06865900
 H          2.37755299    2.94843102    3.15403891
 H          0.46595901    0.27632001   -2.16438007
 H          1.23679602    1.81372797   -2.56720495
 H          1.85198903   -1.54514694   -0.57007903
 H          1.73413098   -1.10159397    2.69316196
 H          2.32492995   -0.77113801   -2.55874300
 H          3.83274508    4.76277018    0.20965999
 H          2.13604093    5.31254101    0.30972701
 H          2.63499808    4.16953993   -0.97048903
 H         -0.02891900    1.82874799    2.26271391
 C         -3.27418900   -0.95107198   -0.74099499
 C         -1.79469299   -0.48466301   -0.79636103
 C         -3.53365397   -1.57897699    0.63068801
 C         -3.38969493   -0.49068400    1.69775295
 C         -1.99406803    0.17589700    1.54498506
 N         -1.23418200   -0.60675699    0.55872899
 H         -3.45250392   -1.67439997   -1.53864396
 H         -1.19944096   -1.11629701   -1.45279396
 H         -4.53732395   -2.00648689    0.66442698
 H         -4.16632700    0.26716900    1.58122599
 H         -1.44187200    0.16095600    2.48247504
 H         -3.94022989   -0.10032700   -0.89866501
 H         -1.70379603    0.55579698   -1.10610902
 C         -2.48742294   -2.66935611    0.88439798
 H         -3.48444605   -0.92357898    2.69556499
 H         -2.06454897    1.19902802    1.17608404
 C         -1.08354998   -2.00795507    0.97201902
 H         -2.50134110   -3.40000701    0.07297400
 H         -2.69649696   -3.19450402    1.81800497
 H         -0.37496901   -2.48976398    0.29982299
 H         -0.69142002   -2.00820494    1.98769200
 O          1.80697298   -2.26724911   -1.96332502
 O          0.07157600   -3.64109397   -1.67361999
 C          0.46808201   -2.75461006   -3.86592293
 C          0.78477699   -2.91819596   -2.38806891
 H          0.28489000   -1.69778895   -4.07819223
 H         -0.40424201   -3.34174299   -4.15072012
 H          1.33065796   -3.06392694   -4.46116304
