55
wb97x-d4 ma-def2-tzvp(-f) cpcm(dmso) E: -1285.24015983715, G: -1284.8183089600002
 C          1.06551695    3.07772303    0.54220301
 C          0.70937502    2.39021492    1.86188805
 O          0.96916300    3.24484801    2.96153092
 C          1.43349099    1.05600703    1.98986399
 O          0.91584301    0.36988100    3.11634994
 C          1.30074596    0.21643101    0.71625000
 C          1.74064398    1.04009998   -0.50186503
 C          1.65945995    0.39324200   -1.88757598
 O          2.81086206   -0.36168501   -2.20897508
 O          0.90444303    2.20055294   -0.55297703
 O          1.90533602   -0.99060398    0.94432402
 O          2.37831092    3.54912710    0.66131699
 H          2.78414106    1.33609295   -0.33921301
 H          0.37888199    3.90776300    0.34565499
 H          2.50806999    1.24667299    2.12422395
 H          0.11159800    0.02154200    0.57457399
 C          2.75917196    4.43678284   -0.38988400
 H          1.86291301    3.59508991    2.84520602
 H          0.75475103   -0.21504501   -1.98627996
 H          1.58376098    1.21700501   -2.60182905
 H          1.93771803   -1.61632895    0.15742999
 H          1.34850705   -0.49287501    3.14883304
 H          2.65172911   -1.28373396   -1.89627695
 H          2.05735612    5.27524996   -0.45257801
 H          2.78947592    3.91374302   -1.34941196
 H          3.75345612    4.80814981   -0.14513899
 H         -0.36752400    2.21125507    1.86245000
 C         -2.62853289   -2.41310692   -0.24835600
 C         -1.22175205   -1.75953805   -0.24362700
 C         -3.65502810   -1.35444999    0.16772699
 C         -3.45968509   -0.10594600   -0.69935900
 C         -2.08341002    0.52473903   -0.35531899
 N         -1.33736706   -0.46392599    0.44096300
 H         -2.65280008   -3.25558496    0.44598901
 H         -0.49274001   -2.36643791    0.29019600
 H         -4.66775894   -1.74256396    0.04720600
 H         -3.49396706   -0.37238401   -1.75790000
 H         -2.18395591    1.42535198    0.24924600
 H         -2.84166098   -2.79188299   -1.24935198
 H         -0.86290097   -1.57048297   -1.25396097
 C         -3.40088010   -0.97904599    1.63017499
 H         -4.24591303    0.62611902   -0.50722200
 H         -1.50423598    0.75726801   -1.24730003
 C         -1.89953303   -0.61875898    1.79341400
 H         -3.64260292   -1.81102002    2.29373097
 H         -4.02157211   -0.12655801    1.91412902
 H         -1.33810997   -1.40688002    2.29267001
 H         -1.76065004    0.31396499    2.33501005
 O          0.84142399   -4.37680387   -0.65780300
 O          2.17833400   -2.63043189   -1.03200805
 C          1.12199998   -3.62623000   -2.91647196
 C          1.38960397   -3.56575489   -1.42082298
 H          2.05484700   -3.52478504   -3.47447491
 H          0.48292500   -2.77938700   -3.18546605
 H          0.61872298   -4.55267286   -3.19110703
