55
wb97x-d4 ma-def2-tzvp(-f) cpcm(dmso) E: -1285.246704019806, G: -1284.82485975
 C          1.61451101    2.57660699    1.22062802
 C          1.44719398    1.16542995    1.78249300
 O          2.30695796    0.96474999    2.89195108
 C          1.65152705    0.10174600    0.70062000
 O          1.29690397   -1.16009104    1.21020603
 C          0.83119500    0.44364899   -0.55125499
 C          1.02612495    1.89453697   -0.97810298
 C          0.13652900    2.33518100   -2.12336612
 O          0.50519198    3.62904000   -2.59100389
 O          0.75822902    2.77385211    0.11321500
 O          1.03378296   -0.38376799   -1.62083006
 O          2.96571803    2.74263096    0.89382797
 H          2.07237411    2.00185800   -1.28986597
 H          1.30653095    3.32522011    1.95833302
 H          2.70758796    0.11010100    0.39534301
 H         -0.30904901    0.31245199   -0.19356500
 C          3.30356789    4.08353376    0.54098600
 H          3.20278597    1.18902099    2.60633492
 H          0.25265101    1.64762497   -2.96040392
 H         -0.91020697    2.32908511   -1.80271697
 H          1.20414495   -1.35118198   -1.38121295
 H          1.91500795   -1.83958101    0.82410699
 H          0.40775099    4.24236488   -1.85226202
 H          3.00028896    4.77476597    1.33466399
 H          2.82247400    4.37327814   -0.39718801
 H          4.38567305    4.11512280    0.42029601
 H          0.42960799    1.08623195    2.16871309
 C         -4.12883377   -0.02709800   -0.20202500
 C         -2.72862411    0.54838800   -0.55452198
 C         -3.93889809   -1.37645197    0.49719700
 C         -3.22110009   -1.14564097    1.83057404
 C         -1.91828799   -0.34096399    1.56266606
 N         -1.72483897   -0.29526600    0.10689900
 H         -4.71005011   -0.14544500   -1.11803806
 H         -2.53462005    0.51532698   -1.62609196
 H         -4.90701723   -1.85028005    0.66879398
 H         -3.85590100   -0.58496797    2.51877308
 H         -1.04574203   -0.81719601    2.00397706
 H         -4.66155910    0.66644299    0.45165199
 H         -2.60501289    1.56933296   -0.19460399
 C         -3.06360292   -2.26890206   -0.38878301
 H         -2.97618008   -2.10202193    2.29713202
 H         -1.99339795    0.68663597    1.91779494
 C         -1.64800894   -1.63527298   -0.48347300
 H         -3.50185490   -2.35663509   -1.38499701
 H         -2.97932005   -3.27134991    0.03437600
 H         -1.31511605   -1.53251898   -1.51572001
 H         -0.90240097   -2.19632196    0.07638200
 O          2.92594194   -2.96025991    0.19204099
 O          1.49237394   -2.91369295   -1.51957202
 C          2.95022893   -4.79425621   -1.33295000
 C          2.42344999   -3.45117593   -0.85603797
 H          2.40844393   -5.58271694   -0.80164897
 H          4.01004124   -4.89695215   -1.09731603
 H          2.78483391   -4.92419815   -2.40242195
