55
wb97x-d4 ma-def2-tzvp(-f) cpcm(dmso) E: -1285.245475470039, G: -1284.8248468400002
 C          1.56914401    2.81073308    0.90359801
 C          1.31852102    1.51638103    1.66451800
 O          2.11331201    1.48837996    2.83744407
 C          1.59251595    0.29726800    0.79117203
 O          1.22368097   -0.85058600    1.52139294
 C          0.83516300    0.41189599   -0.53555399
 C          1.02972698    1.78910601   -1.17642295
 C          0.16865601    2.01245689   -2.40713596
 O          0.56190097    3.17244291   -3.13543200
 O          0.73712099    2.82728004   -0.24471100
 O          1.11725700   -0.56926298   -1.44570100
 O          2.92484689    2.90842390    0.58418101
 H          2.08469701    1.84701300   -1.47554505
 H          1.25336897    3.67721009    1.49529600
 H          2.66272593    0.26870301    0.54654402
 H         -0.32020101    0.30956700   -0.22654800
 C          3.27409601    4.16986609    0.01614300
 H          2.00224590    0.60690898    3.21827793
 H          0.20825000    1.12155604   -3.03903198
 H         -0.86523801    2.18180490   -2.10264993
 H          1.34074998   -1.46605802   -1.03689396
 H          1.86619496   -1.58865905    1.31712997
 H          1.41874599    2.99544811   -3.54141688
 H          2.95667291    4.98663616    0.67389101
 H          2.81583595    4.29993105   -0.96828198
 H          4.35893202    4.18131495   -0.08328400
 H          0.25567999    1.51989400    1.93381798
 C         -3.04563308   -2.29635811   -0.35774899
 C         -1.62573695   -1.66937602   -0.39921001
 C         -3.96831608   -1.35282505    0.42103699
 C         -4.13438177   -0.05855200   -0.38160399
 C         -2.72200394    0.47764501   -0.74472803
 N         -1.74831700   -0.27965900    0.05275300
 H         -2.99002409   -3.27384591    0.12435100
 H         -0.93081403   -2.17187405    0.27131301
 H         -4.93940783   -1.82368898    0.58313400
 H         -4.69553804   -0.23926499   -1.29997003
 H         -2.61316609    1.53487599   -0.50530201
 H         -3.42245698   -2.43974495   -1.37260199
 H         -1.20894098   -1.66445696   -1.40583003
 C         -3.31154609   -1.01749599    1.76393199
 H         -4.67563486    0.68473101    0.20734499
 H         -2.48527789    0.31705800   -1.79605997
 C         -2.02615690   -0.18692800    1.49335897
 H         -3.05598092   -1.93526697    2.29801989
 H         -3.98844099   -0.43642601    2.39240909
 H         -1.16398799   -0.57674599    2.02951908
 H         -2.16144109    0.86703300    1.73578894
 O          1.73653495   -3.00250912   -0.88055700
 O          2.87712693   -2.81095505    1.03146100
 C          3.18605399   -4.79052210   -0.27208999
 C          2.54822993   -3.43542790   -0.01461900
 H          3.57745004   -5.22412395    0.64794099
 H          4.01535320   -4.65211010   -0.97221899
 H          2.46785998   -5.46884298   -0.73461902
