55
wb97x-d4 ma-def2-tzvp(-f) cpcm(dmso) E: -1285.2454745264, G: -1284.8246215600002
 C          1.58696795    2.78811908    0.90031201
 C          1.33504999    1.49283504    1.65931797
 O          2.14158893    1.45572495    2.82387805
 C          1.59213305    0.27479300    0.77887797
 O          1.22396100   -0.87436801    1.50737906
 C          0.82237703    0.39942899   -0.53973001
 C          1.02238095    1.77730799   -1.17786300
 C          0.15391800    2.01102304   -2.40133405
 O          0.55013502    3.17067909   -3.12846994
 O          0.74475199    2.81432390   -0.24029900
 O          1.08574200   -0.58122498   -1.45574498
 O          2.94029403    2.87766504    0.56887501
 H          2.07555199    1.82816303   -1.48441601
 H          1.28254199    3.65464592    1.49783099
 H          2.65967798    0.24065700    0.52349699
 H         -0.33092001    0.30758899   -0.22033700
 C          3.29322410    4.13820791    0.00118300
 H          2.02689195    0.57462901    3.20445204
 H          0.18263100    1.12204397   -3.03651190
 H         -0.87660003    2.18643403   -2.08890009
 H          1.31801903   -1.47814798   -1.05312800
 H          1.86454904   -1.61252606    1.29631901
 H          1.40320003    2.98926711   -3.54042912
 H          4.37751579    4.14378214   -0.10457500
 H          2.98423505    4.95543098    0.66235501
 H          2.82992792    4.27280378   -0.98026800
 H          0.27509999    1.50267804    1.93950605
 C         -3.07293892   -2.28236198   -0.31317499
 C         -1.65019596   -1.66305399   -0.37143201
 C         -3.98613000   -1.32502496    0.45993099
 C         -4.14829779   -0.03821100   -0.35530499
 C         -2.73455501    0.48852700   -0.72724301
 N         -1.76140499   -0.26917699    0.07068300
 H         -3.01934695   -3.25411105    0.18060300
 H         -0.95216602   -2.16379905    0.29725799
 H         -4.95937681   -1.78819299    0.63109899
 H         -4.71262312   -0.22592799   -1.27031398
 H         -2.61932611    1.54646897   -0.49417001
 H         -3.45699501   -2.43615603   -1.32376003
 H         -1.24184501   -1.66789699   -1.38150895
 C         -3.32158208   -0.98003000    1.79646695
 H         -4.68474722    0.71341503    0.22744200
 H         -2.50269508    0.32082999   -1.77856505
 C         -2.03043509   -0.16322400    1.51200199
 H         -3.07160091   -1.89386594    2.33981109
 H         -3.99141097   -0.38642299    2.42081594
 H         -1.16894197   -0.55674899    2.04666495
 H         -2.15487909    0.89372200    1.74710298
 O          2.88367796   -2.82456899    0.99154902
 O          1.73182499   -3.01194310   -0.91393298
 C          3.23850489   -4.76932383   -0.34775600
 C          2.56195688   -3.43881011   -0.06291900
 H          3.55074596   -5.25581217    0.57652497
 H          4.13034678   -4.57568216   -0.95150501
 H          2.57959604   -5.42458010   -0.91814399
