55
wb97x-d4 ma-def2-tzvp(-f) cpcm(dmso) E: -1285.246396323656, G: -1284.8245355200002
 C          1.44406998    2.90665293    0.62793899
 C          1.30533803    1.69361496    1.54876900
 O          2.03075099    1.90939903    2.74802494
 C          1.72122800    0.39896101    0.84984499
 O          1.42635298   -0.68441802    1.69095504
 C          1.01743603    0.29357201   -0.51442599
 C          1.24878705    1.56641996   -1.32627296
 C          0.59799302    1.60833001   -2.69718599
 O         -0.82068402    1.69921803   -2.64042497
 O          0.77979600    2.70156693   -0.60009903
 O          1.35671794   -0.80125999   -1.25961602
 O          2.81489706    3.14498901    0.46059901
 H          2.33293700    1.64444697   -1.48257101
 H          0.95989901    3.78208089    1.07316697
 H          2.79943299    0.44112000    0.63472903
 H         -0.15410200    0.20993499   -0.25077200
 C          3.10377502    4.40656090   -0.14047600
 H          2.91944790    2.19207907    2.49314690
 H          1.01192999    2.45913196   -3.24857211
 H          0.84215403    0.69340599   -3.23684907
 H          1.39730203   -1.66782701   -0.73704302
 H          2.03675699   -1.44124699    1.48754096
 H         -1.03847206    2.56915593   -2.28547192
 H          4.18617582    4.52700090   -0.11744900
 H          2.63140512    5.21583414    0.42670900
 H          2.75409603    4.43552780   -1.17600203
 H          0.25349700    1.60812604    1.83394396
 C         -3.05934596   -1.59716403    1.45614600
 C         -1.59284604   -1.16643000    1.18231499
 C         -3.91115904   -1.23055696    0.23838501
 C         -3.24589396   -1.81156301   -1.01476002
 C         -1.89059603   -1.08481598   -1.23438203
 N         -1.60090899   -0.31654400   -0.01817100
 H         -3.43690801   -1.09057200    2.34699607
 H         -1.17241800   -0.59190601    2.00380111
 H         -4.92163706   -1.62808597    0.34834599
 H         -3.08201098   -2.88408709   -0.89070898
 H         -1.92750096   -0.38075799   -2.06256795
 H         -3.08876991   -2.67266989    1.64015400
 H         -0.94329000   -2.01584411    0.98024797
 C         -3.95317197    0.29686800    0.11435600
 H         -3.87647605   -1.66389406   -1.89333999
 H         -1.07246006   -1.78663301   -1.39463103
 C         -2.49642205    0.83777499    0.13987499
 H         -4.51387119    0.73701501    0.94087499
 H         -4.44166803    0.58652502   -0.81865698
 H         -2.25293899    1.31420302    1.08917999
 H         -2.30557203    1.53281295   -0.67285001
 O          2.94950104   -2.80071807    1.26911104
 O          1.47145200   -3.20641398   -0.35386100
 C          2.70154190   -5.05487823    0.50153798
 C          2.35012007   -3.57672310    0.47739801
 H          1.78844404   -5.65291595    0.52519602
 H          3.33009505   -5.29973793    1.35713398
 H          3.23579502   -5.30466080   -0.41926700
