55
wb97x-d4 ma-def2-tzvp(-f) cpcm(dmso) E: -1285.24550257822, G: -1284.82448563
 C          1.40763700    2.88971210    0.78160799
 C          1.19920099    1.65265405    1.65267098
 O          1.93387496    1.76743698    2.86047196
 C          1.54146397    0.36837101    0.89716703
 O          1.13215005   -0.74399799    1.65525103
 C          0.88919097    0.36043000   -0.49402601
 C          1.11548603    1.67556000   -1.23879194
 C          0.36920500    1.76358604   -2.55855799
 O          0.80855000    2.86317897   -3.35117102
 O          0.69852197    2.77501202   -0.43329501
 O          1.25418496   -0.69457698   -1.28584301
 O          2.78790212    3.03691792    0.59033400
 H          2.19254494    1.74846005   -1.43930602
 H          0.99594998    3.77817988    1.27213299
 H          2.62764502    0.33975801    0.72977602
 H         -0.28542399    0.26519600   -0.26982599
 C          3.15174508    4.28977203    0.01228700
 H          2.84348893    1.98930001    2.61994195
 H          0.48366699    0.82068801   -3.09903312
 H         -0.69108099    1.93213701   -2.36563396
 H          1.38422000   -1.56571400   -0.79010201
 H          1.80072701   -1.47149301    1.53207600
 H          1.70313704    2.67237711   -3.65730906
 H          2.74737000    5.11593103    0.60700703
 H          2.78540301    4.36748886   -1.01504505
 H          4.24019289    4.33488798    0.01580400
 H          0.14538200    1.62379098    1.93699801
 C         -3.43851399   -0.86522400    1.58361495
 C         -2.12681389   -0.06850400    1.33563805
 C         -3.96486497   -1.37337005    0.23749401
 C         -2.97001600   -2.39128304   -0.32950500
 C         -1.55780995   -1.74391496   -0.34230101
 N         -1.72695100   -0.31547201   -0.05694000
 H         -4.16985607   -0.21253300    2.06345391
 H         -2.27240992    1.00522399    1.45058799
 H         -4.94467783   -1.83645999    0.36637300
 H         -2.94426703   -3.29244709    0.28554600
 H         -1.07175803   -1.84072602   -1.31233299
 H         -3.24208307   -1.70549905    2.25283909
 H         -1.31729400   -0.39816001    1.98310399
 C         -4.06386089   -0.19104400   -0.73106301
 H         -3.25986910   -2.67953396   -1.34199297
 H         -0.90501499   -2.15559101    0.42466700
 C         -2.62929010    0.33763099   -1.01346695
 H         -4.67362118    0.60343301   -0.29585201
 H         -4.52460098   -0.49781200   -1.67156804
 H         -2.55668092    1.41535401   -0.87167197
 H         -2.29181004    0.07859600   -2.01652002
 O          1.64716303   -3.11701894   -0.47454599
 O          2.87111712   -2.69210100    1.34328103
 C          2.99267006   -4.88232279    0.39976001
 C          2.45914793   -3.45978093    0.43045199
 H          3.88847589   -4.89911795   -0.22844900
 H          2.26026201   -5.56235790   -0.03614300
 H          3.27089095   -5.21501398    1.39995301
