55
wb97x-d4 ma-def2-tzvp(-f) cpcm(dmso) E: -1285.246718636698, G: -1284.82438643
 C          1.80407703    2.64350104    1.21109700
 C          1.61335099    1.23360395    1.75519598
 O          2.49524212    1.01651502    2.84268188
 C          1.82407701    0.19198100    0.66275901
 O          1.60816097   -1.07085502    1.23898101
 C          0.90349501    0.50149399   -0.52668601
 C          1.07242703    1.96141505   -0.95475501
 C          0.13970900    2.43644691   -2.05493212
 O         -1.20917106    2.55687094   -1.62015200
 O          0.88944697    2.84773207    0.14724800
 O          1.05543995   -0.31123900   -1.61505497
 O          3.13057089    2.80932593    0.80883002
 H          2.09805393    2.04703498   -1.33735096
 H          1.53550196    3.39407301    1.96263099
 H          2.85364294    0.27053499    0.28697300
 H         -0.22327600    0.33338100   -0.11319000
 C          3.43642497    4.14913177    0.42586601
 H          2.46608210    0.06695300    3.02346897
 H          0.50749600    3.39873290   -2.42707300
 H          0.15228800    1.71880996   -2.87539792
 H          1.16668999   -1.29017699   -1.38609397
 H          2.14338589   -1.75625002    0.74972898
 H         -1.22423303    3.20655107   -0.90662402
 H          4.51115179    4.18962383    0.25217700
 H          3.16683006    4.84724617    1.22613800
 H          2.90829206    4.42757893   -0.49033001
 H          0.57283801    1.16639996    2.09789991
 C         -3.61541009   -1.01984501   -1.06495404
 C         -2.14404202   -0.54395002   -1.22323000
 C         -3.87770510   -1.31229198    0.41523200
 C         -3.78510690   -0.00224700    1.20540404
 C         -2.43858004    0.69013602    0.85992199
 N         -1.61852598   -0.28300801    0.12353100
 H         -3.77088094   -1.91562402   -1.66866899
 H         -1.51607203   -1.30908096   -1.67735195
 H         -4.86530590   -1.75948906    0.54164702
 H         -4.60836506    0.66584098    0.94624603
 H         -1.89178097    0.99040401    1.75314701
 H         -4.29790783   -0.24645101   -1.42385006
 H         -2.07126093    0.37672400   -1.79674602
 C         -2.79268193   -2.26694894    0.92132002
 H         -3.83852410   -0.20563900    2.27711892
 H         -2.57914710    1.55409598    0.21503600
 C         -1.42700803   -1.52998197    0.88126302
 H         -2.75440693   -3.16038203    0.29424801
 H         -3.00010610   -2.58159208    1.94582403
 H         -0.65785003   -2.11323905    0.37981200
 H         -1.07303798   -1.26116300    1.87437904
 O          2.96043801   -2.95025706    0.01453100
 O          1.29799402   -2.86850810   -1.47498000
 C          2.61744595   -4.85564089   -1.37669802
 C          2.27275705   -3.44899201   -0.91812098
 H          2.12038493   -5.56377888   -0.70646697
 H          3.69202590   -5.02867603   -1.30979300
 H          2.26466608   -5.03683901   -2.39183593
