55
wb97x-d4 ma-def2-tzvp(-f) cpcm(dmso) E: -1285.245879769659, G: -1284.8241693100001
 C          1.41063201    2.70469904    1.11069095
 C          1.43570101    1.32308495    1.76503897
 O          2.29443312    1.32944405    2.89370298
 C          1.81200004    0.23163500    0.76333499
 O          1.65037203   -1.01980305    1.37821603
 C          0.95563298    0.37047201   -0.50749701
 C          1.02232802    1.79782796   -1.04875302
 C          0.18223700    2.04010201   -2.28971601
 O          0.47057399    3.30126810   -2.88840795
 O          0.59368098    2.71185207   -0.04029500
 O          1.23937905   -0.52677500   -1.50061798
 O          2.73924899    3.05355692    0.83145201
 H          2.07220888    1.99576902   -1.30403197
 H          0.96086198    3.44025397    1.78611600
 H          2.85580397    0.37954199    0.44950500
 H         -0.16370501    0.17759700   -0.13861200
 C          2.89897990    4.41788483    0.44572601
 H          3.13360596    1.71590900    2.60906291
 H          0.34638101    1.22399902   -2.99704194
 H         -0.87567103    2.06655788   -2.02304912
 H          1.31332600   -1.48743403   -1.18593395
 H          2.23024988   -1.68891001    0.92964399
 H          1.35222697    3.25347090   -3.27654505
 H          2.43149805    4.60647678   -0.52446902
 H          3.97013593    4.60353708    0.37669900
 H          2.45813608    5.08117723    1.19766402
 H          0.43154001    1.11403000    2.14239502
 C         -3.92341399    0.25653499    0.61616600
 C         -2.45576692    0.76891798    0.54839301
 C         -3.92284203   -1.26382506    0.42531699
 C         -2.97201204   -1.88655901    1.45180595
 C         -1.52500606   -1.40543497    1.14581597
 N         -1.62122595   -0.36023101    0.11778100
 H         -4.51940298    0.73620999   -0.16282199
 H         -2.33920193    1.57705295   -0.17124000
 H         -4.93179321   -1.65807998    0.55860901
 H         -3.25754404   -1.58491397    2.46156597
 H         -0.89931899   -2.20212293    0.74827600
 H         -4.35256720    0.52227801    1.58359098
 H         -2.08996797    1.09925902    1.51986897
 C         -3.41078591   -1.59452200   -0.98095399
 H         -3.00765896   -2.97604704    1.39961195
 H         -1.03977704   -0.97845799    2.02057600
 C         -2.03313708   -0.90001303   -1.18184805
 H         -4.10655212   -1.23678005   -1.74165297
 H         -3.30473495   -2.67456198   -1.09871697
 H         -2.09808111   -0.06964500   -1.88334405
 H         -1.26620901   -1.59710705   -1.51800001
 O          1.38863695   -3.06609201   -1.13845599
 O          3.11323500   -2.93961191    0.27323300
 C          2.69793797   -5.02974415   -0.81150502
 C          2.38611197   -3.56725907   -0.54284197
 H          2.04931808   -5.63953304   -0.17518200
 H          3.73481798   -5.26106787   -0.56831402
 H          2.48514009   -5.28586721   -1.85000896
