55
wb97x-d4 ma-def2-tzvp(-f) cpcm(dmso) E: -1285.245518975896, G: -1284.82391935
 C          1.66832697    2.56637692    1.29102600
 C          1.47738695    1.14529598    1.81830096
 O          2.34803104    0.89675999    2.90921211
 C          1.64254498    0.10617400    0.70766503
 O          1.25139105   -1.15720499    1.18559504
 C          0.81802499    0.51078802   -0.51973403
 C          1.03441095    1.97044003   -0.91538900
 C          0.12549201    2.46764803   -2.03487706
 O          0.43035299    1.87210596   -3.28909802
 O          0.79891700    2.81869793    0.20339300
 O          0.97194803   -0.29383600   -1.61681294
 O          3.01715589    2.70666909    0.94476700
 H          2.07593012    2.06258702   -1.24767995
 H          1.39142203    3.30178499    2.05371809
 H          2.69542789    0.09118800    0.39197201
 H         -0.32744601    0.39525300   -0.14893000
 C          3.38851500    4.04848719    0.63101399
 H          3.24469209    1.10767901    2.61601996
 H         -0.92286599    2.30445004   -1.76551795
 H          0.28214899    3.54257393   -2.14232802
 H          1.17805004   -1.27243805   -1.42460096
 H          1.85719001   -1.84641302    0.79571903
 H          0.48052999    0.91636097   -3.14468408
 H          2.90021992    4.38402891   -0.28790101
 H          4.46880484    4.05250788    0.49149701
 H          3.11973190    4.72059488    1.45291102
 H          0.46403301    1.07782602    2.21718907
 C         -4.14165592    0.11984700   -0.10962200
 C         -2.73905802    0.67429000   -0.48189601
 C         -3.96338296   -1.24901402    0.55353200
 C         -3.21861696   -1.06216097    1.87868905
 C         -1.91129804   -0.26785401    1.60711300
 N         -1.73531103   -0.19495399    0.14891900
 H         -4.74596786    0.03491400   -1.01431000
 H         -2.56721401    0.64959598   -1.55758798
 H         -4.93630695   -1.71079695    0.73054099
 H         -3.83313608   -0.51157898    2.59300590
 H         -1.03871405   -0.76320797    2.02632594
 H         -4.64516211    0.80822903    0.57220399
 H         -2.59037995    1.68882799   -0.11360900
 C         -3.11839509   -2.13388705   -0.36889699
 H         -2.97811103   -2.03352690    2.31574798
 H         -1.96835303    0.75349599    1.98330402
 C         -1.69218194   -1.52612197   -0.46726900
 H         -3.57284403   -2.18585992   -1.36039901
 H         -3.04815006   -3.14898705    0.02569300
 H         -1.36784101   -1.41110301   -1.50092602
 H         -0.95233202   -2.11152506    0.07525600
 O          1.51875198   -2.77895689   -1.62958002
 O          2.83576202   -2.98087692    0.16410699
 C          2.93811607   -4.69402218   -1.48807704
 C          2.39616895   -3.38203597   -0.94741601
 H          4.01171494   -4.76241779   -1.30637801
 H          2.72749209   -4.80168009   -2.55171204
 H          2.45603800   -5.51502705   -0.94920599
