55
wb97x-d4 ma-def2-tzvp(-f) cpcm(dmso) E: -1285.246692718551, G: -1284.82559996
 C          1.79719603    2.61644197    1.22756600
 C          1.61227000    1.19784999    1.75129604
 O          2.49860907    0.96622300    2.83200908
 C          1.82131803    0.17386100    0.64171302
 O          1.61384594   -1.09959495    1.19779003
 C          0.89032102    0.49897701   -0.53527498
 C          1.05769598    1.96455204   -0.94451499
 C          0.12252900    2.45378208   -2.03627801
 O         -1.22658205    2.56307507   -1.59921205
 O          0.87724799    2.83467293    0.17081600
 O          1.03160799   -0.30035201   -1.63515604
 O          3.12149692    2.79145098    0.82176697
 H          2.08235407    2.05603004   -1.32831800
 H          1.53045905    3.35507488    1.99148595
 H          2.84807992    0.26258200    0.26081100
 H         -0.23148701    0.33126801   -0.11375800
 C          3.42187691    4.13744211    0.45648301
 H          2.47413707    0.01350600    2.99632907
 H          0.48697901    3.42291498   -2.39368796
 H          0.13698600    1.74916601   -2.86789703
 H          1.17132604   -1.27871203   -1.42071104
 H          2.16052389   -1.77178395    0.70190698
 H         -1.24389696    3.20460105   -0.87843800
 H          4.49572182    4.18358612    0.27879900
 H          3.15368009    4.82340384    1.26765394
 H          2.88898802    4.42723799   -0.45341799
 H          0.57322502    1.12269294    2.09686589
 C         -3.63888407   -1.00793004   -1.03415895
 C         -2.16511798   -0.54391497   -1.20398796
 C         -3.88928699   -1.30467105    0.44748500
 C         -3.78610706    0.00285200    1.24023199
 C         -2.44463611    0.69607198    0.87707698
 N         -1.63063896   -0.28041399    0.13841200
 H         -3.80708098   -1.89949000   -1.64067900
 H         -1.54521203   -1.31604004   -1.65751898
 H         -4.87670088   -1.75007606    0.58120698
 H         -4.61253023    0.67207903    0.99451298
 H         -1.88973498    1.00378597    1.76276195
 H         -4.31832504   -0.22728200   -1.38309205
 H         -2.08889294    0.37324300   -1.78288805
 C         -2.80169702   -2.26286793    0.94154501
 H         -3.82420206   -0.20372200    2.31200600
 H         -2.59426188    1.55498803    0.22764300
 C         -1.43665802   -1.52509499    0.89879799
 H         -2.76670790   -3.15222192    0.30852801
 H         -3.00301409   -2.58412790    1.96519303
 H         -0.66680300   -2.10888410    0.39946699
 H         -1.08242202   -1.25320899    1.89115500
 O          1.35245395   -2.85292697   -1.55306900
 O          2.99542403   -2.94249296   -0.04226200
 C          2.69512296   -4.82566595   -1.47190404
 C          2.32562804   -3.43232799   -0.99295199
 H          3.77385092   -4.97592878   -1.41430402
 H          2.34116101   -5.00025606   -2.48780107
 H          2.21875811   -5.55344009   -0.80803603
