55
wb97x-d4 ma-def2-tzvp(-f) cpcm(dmso) E: -1285.245132652846, G: -1284.82344512
 C          1.66176605    2.56040597    1.29268003
 C          1.54507005    1.12976301    1.80269897
 O          2.43150496    0.93251401    2.89065695
 C          1.81437004    0.12755901    0.68674898
 O          1.63168395   -1.16199303    1.21670699
 C          0.89622301    0.42765099   -0.50511402
 C          0.99493301    1.90409899   -0.89802402
 C          0.03941000    2.31125402   -1.99774599
 O          0.46261999    3.57674909   -2.50431800
 O          0.74043000    2.74007797    0.23066200
 O          1.08870304   -0.36305001   -1.60452497
 O          2.98063898    2.80641508    0.90326500
 H          2.01884699    2.06824803   -1.25622296
 H          1.35066104    3.27659106    2.06132102
 H          2.84573388    0.25416401    0.33078700
 H         -0.21232800    0.23037100   -0.09626700
 C          3.21436810    4.16856623    0.54903501
 H          2.43450308   -0.01858000    3.06481099
 H          0.05731600    1.55262995   -2.78442502
 H         -0.97600198    2.38206601   -1.59381497
 H          1.25672996   -1.33747196   -1.39116204
 H          2.22335911   -1.80361903    0.73267299
 H         -0.17225000    3.85465503   -3.17409205
 H          2.90772796    4.83422279    1.36348796
 H          2.67234707    4.43774891   -0.36165300
 H          4.28541517    4.27024078    0.37796101
 H          0.50786799    1.00126004    2.13754797
 C         -3.54328489   -1.35127199   -0.97749501
 C         -2.11877489   -0.74863601   -1.14770901
 C         -3.95560598   -1.23232901    0.49270201
 C         -3.91776991    0.24063399    0.91061401
 C         -2.47006702    0.78126502    0.72279203
 N         -1.65977800   -0.31444001    0.17516699
 H         -3.53975606   -2.39807296   -1.28618503
 H         -1.40593100   -1.47990799   -1.52653599
 H         -4.96167278   -1.63272798    0.63052797
 H         -4.60868502    0.82677901    0.30202299
 H         -2.02099395    1.08922803    1.66603601
 H         -4.24437618   -0.81100202   -1.61592400
 H         -2.12441611    0.12013800   -1.80440700
 C         -2.95734406   -2.01440310    1.35047197
 H         -4.21326399    0.34570500    1.95598602
 H         -2.43549609    1.61249495    0.02096200
 C         -1.53195798   -1.43694305    1.11436605
 H         -2.97136688   -3.07225895    1.08202899
 H         -3.21671796   -1.92855501    2.40732503
 H         -0.85820901   -2.16611695    0.66954303
 H         -1.08464706   -1.05740297    2.03071904
 O          1.49425805   -2.90221095   -1.53514004
 O          3.13289094   -2.92027402   -0.01702900
 C          2.92950296   -4.80901718   -1.45644104
 C          2.49170494   -3.43710494   -0.97332501
 H          2.57523108   -5.00363111   -2.46844101
 H          2.49970698   -5.56033897   -0.78699899
 H          4.01516724   -4.90213013   -1.40931296
