55
wb97x-d4 ma-def2-tzvp(-f) cpcm(dmso) E: -1285.24559746611, G: -1284.82320811
 C          1.37202406    2.91913795    0.67154002
 C          1.23081696    1.69919705    1.58336604
 O          1.97585106    1.88795304    2.77473593
 C          1.61272001    0.39879501    0.87344402
 O          1.24146295   -0.69243598    1.67853606
 C          0.94703400    0.33436799   -0.50692999
 C          1.18039799    1.61670697   -1.30003095
 C          0.49262500    1.65515602   -2.66019106
 O          1.09706295    0.76852298   -3.59333992
 O          0.69156700    2.72787094   -0.55338699
 O          1.27443898   -0.75728202   -1.26512003
 O          2.74144912    3.14853907    0.49346301
 H          2.26124597    1.71567905   -1.45957696
 H          0.89655203    3.79347396    1.12791502
 H          2.69812894    0.39768299    0.69692701
 H         -0.23452900    0.27601799   -0.26956800
 C          3.03536391    4.41176319   -0.10257300
 H          2.86454391    2.16345191    2.51188707
 H         -0.57467997    1.43872499   -2.55101395
 H          0.59346199    2.66503000   -3.06200504
 H          1.37834406   -1.63672197   -0.75785500
 H          1.88921106   -1.43403101    1.53365803
 H          1.14512205   -0.09775300   -3.16440105
 H          2.68447900    4.44668484   -1.13749802
 H          4.11829519    4.52692223   -0.08005100
 H          2.56710696    5.22019005    0.46904501
 H          0.18362799    1.63508403    1.88442397
 C         -3.29502606   -0.92276597    1.66668904
 C         -1.98814595   -0.12386100    1.41533995
 C         -3.96802998   -1.18520904    0.31591299
 C         -3.09325695   -2.15600991   -0.48561299
 C         -1.63676906   -1.61994505   -0.47742200
 N         -1.68806100   -0.22515500   -0.02290200
 H         -3.94730210   -0.34285301    2.32178998
 H         -2.10676193    0.93374902    1.65096796
 H         -4.96416616   -1.60581803    0.46251300
 H         -3.10791492   -3.15276289   -0.04167000
 H         -1.18637598   -1.63945997   -1.46955299
 H         -3.06632400   -1.86751795    2.16483903
 H         -1.14325500   -0.52788401    1.96801805
 C         -4.05644083    0.14035800   -0.44855699
 H         -3.45887589   -2.23637795   -1.51163101
 H         -0.99815297   -2.16854191    0.21304800
 C         -2.61754298    0.57947302   -0.83030403
 H         -4.53057718    0.90371197    0.17202300
 H         -4.64665222    0.02837000   -1.35962105
 H         -2.43626094    1.63286901   -0.61909401
 H         -2.40458012    0.37752101   -1.87904799
 O          1.58350301   -3.13729596   -0.41672701
 O          2.90232205   -2.70704007    1.33326101
 C          2.92149401   -4.91811085    0.41890100
 C          2.43317008   -3.48065996    0.45662600
 H          2.08349991   -5.59564686    0.24696399
 H          3.43829608   -5.18474102    1.34025800
 H          3.61445594   -5.02713299   -0.42041001
