55
wb97x-d4 ma-def2-tzvp(-f) cpcm(dmso) E: -1285.245388693783, G: -1284.82305935
 C          1.72859299    2.65019202    1.26216400
 C          1.51014495    1.23554003    1.78193104
 O          2.37509990    0.98773903    2.87652993
 C          1.71181405    0.20095401    0.68005002
 O          1.38902795   -1.06389701    1.20806599
 C          0.85428500    0.56733698   -0.53327900
 C          1.03616500    2.03484797   -0.92927802
 C          0.08792300    2.51982093   -2.02108097
 O          0.35431400    1.91802704   -3.28119707
 O          0.82333702    2.88491607    0.19325501
 O          1.01590598   -0.23148599   -1.63276601
 O          3.06023097    2.80373812    0.87593597
 H          2.06611204    2.13951898   -1.29261506
 H          1.46201098    3.39095712    2.02395010
 H          2.76002693    0.22560500    0.35354599
 H         -0.28679001    0.41966799   -0.14669999
 C          3.38863111    4.14585590    0.51910299
 H          2.28266096    0.04913500    3.08820605
 H         -0.94974703    2.35244703   -1.71538103
 H          0.23466501    3.59495091   -2.14004588
 H          1.19329906   -1.21934903   -1.44307804
 H          1.96734202   -1.75182903    0.77341503
 H          0.43077999    0.96482098   -3.13122201
 H          3.12177300    4.83311701    1.32947099
 H          2.87208295    4.44775677   -0.39624599
 H          4.46517515    4.17369604    0.35501301
 H          0.46747199    1.19193399    2.11544704
 C         -4.08686304    0.03368200   -0.10582900
 C         -2.70131993    0.63155198   -0.47451600
 C         -3.86818004   -1.32145798    0.57316399
 C         -3.13169408   -1.09730899    1.89700794
 C         -1.84303606   -0.27557501    1.61827898
 N         -1.67123497   -0.20429900    0.15915599
 H         -4.68172121   -0.08174800   -1.01344597
 H         -2.52574992    0.61181599   -1.54972804
 H         -4.82709694   -1.81010902    0.75452697
 H         -3.76217103   -0.55167103    2.60115910
 H         -0.95832998   -0.74915600    2.03782797
 H         -4.61811495    0.71196300    0.56487101
 H         -2.58637691    1.65052199   -0.10643600
 C         -2.99619794   -2.19124007   -0.33774900
 H         -2.86909199   -2.05597305    2.34908605
 H         -1.92219996    0.74550003    1.99085295
 C         -1.59212601   -1.53685904   -0.45081401
 H         -3.45093203   -2.27450395   -1.32695997
 H         -2.89058304   -3.19693804    0.07275200
 H         -1.28190196   -1.41614902   -1.48787701
 H         -0.82839900   -2.09645605    0.08563600
 O          1.43981695   -2.73499990   -1.61332703
 O          2.87114596   -2.91247296    0.09289200
 C          2.70434904   -4.73936605   -1.44375801
 C          2.31887794   -3.35668302   -0.94886500
 H          1.86017704   -5.41539812   -1.28162599
 H          3.57495689   -5.12207317   -0.91246903
 H          2.90165806   -4.71061993   -2.51700592
