55
wb97x-d4 ma-def2-tzvp(-f) cpcm(dmso) E: -1285.243262326883, G: -1284.8230458
 C          1.58133602    2.73265290    0.94989198
 C          1.35156000    1.41687500    1.69741702
 O          2.19572210    1.29848897    2.83164096
 C          1.59336698    0.21366100    0.79295897
 O          1.17828405   -0.96279299    1.44458795
 C          0.84450001    0.38604099   -0.53643501
 C          1.04282701    1.77235305   -1.14857697
 C          0.18824600    2.02282906   -2.37842011
 O          0.57720000    3.20636606   -3.07061100
 O          0.74086303    2.78171396   -0.18981300
 O          1.11331403   -0.57888198   -1.46845901
 O          2.93369508    2.84586310    0.61998099
 H          2.09896302    1.84146404   -1.44045997
 H          1.26884305    3.58332705    1.56751502
 H          2.66422606    0.16462000    0.55360198
 H         -0.30895799    0.29154700   -0.22849400
 C          3.26922107    4.11849785    0.06999100
 H          1.88119304    1.90953696    3.50809789
 H          0.24050599    1.15063798   -3.03490901
 H         -0.84942597    2.17467189   -2.07785702
 H          1.32900095   -1.48600900   -1.08317101
 H          1.82997203   -1.68982995    1.24216998
 H          1.43610001    3.04594898   -3.47912097
 H          2.80803299    4.25922680   -0.91168398
 H          4.35374784    4.14257002   -0.03123000
 H          2.94480705    4.92259979    0.73998499
 H          0.30120799    1.41417599    2.00748491
 C         -3.06956410   -2.28585005   -0.33995599
 C         -1.64296305   -1.67431402   -0.38965300
 C         -3.98199010   -1.32495999    0.42968401
 C         -4.13199902   -0.03567000   -0.38383800
 C         -2.71275902    0.48534200   -0.74370497
 N         -1.74967802   -0.28166401    0.05679900
 H         -3.02376199   -3.25848794    0.15292300
 H         -0.95001698   -2.17975497    0.28018999
 H         -4.95881891   -1.78306496    0.59410203
 H         -4.69026899   -0.21852900   -1.30352604
 H         -2.59392190    1.54133904   -0.50389099
 H         -3.44918609   -2.43637991   -1.35268605
 H         -1.23043394   -1.67694402   -1.39815295
 C         -3.32400894   -0.98610699    1.77110898
 H         -4.66921377    0.71722400    0.19652300
 H         -2.47499394    0.32197499   -1.79437101
 C         -2.02505398   -0.17778000    1.49648499
 H         -3.08399296   -1.90209401    2.31531000
 H         -3.99397111   -0.38847899    2.39146590
 H         -1.16966200   -0.57961798    2.03437710
 H         -2.14355397    0.87929302    1.73414004
 O          1.72871399   -3.03815198   -0.99470598
 O          2.86309004   -2.90643001    0.92613602
 C          3.19667506   -4.83472395   -0.43660101
 C          2.54092193   -3.49550104   -0.14258000
 H          4.17618084   -4.64431477   -0.88562101
 H          2.60231209   -5.41707277   -1.14052498
 H          3.35358000   -5.39742708    0.48448700
