55
wb97x-d4 ma-def2-tzvp(-f) cpcm(dmso) E: -1285.245322972869, G: -1284.8229161200002
 C          1.43038404    2.94458699    0.66423303
 C          1.19823897    1.73329902    1.55931795
 O          1.90184402    1.90358901    2.77703404
 C          1.60114706    0.43301699    0.87139100
 O          1.23985302   -0.63435400    1.71573806
 C          0.93835199    0.34976101   -0.50578499
 C          1.18903100    1.63061798   -1.30179000
 C          0.49473599    1.68141496   -2.65804100
 O          1.06381798    0.76912498   -3.58913302
 O          0.73248500    2.75805092   -0.55888999
 O          1.26807594   -0.74733198   -1.25473797
 O          2.79984403    3.12212110    0.47181299
 H          2.27109289    1.70213199   -1.46787500
 H          0.98557502    3.84229398    1.10729301
 H          2.68661094    0.43819800    0.70266497
 H         -0.24661601    0.29179299   -0.27400300
 C          3.12032795    4.34792185   -0.18455000
 H          1.78898299    1.08190501    3.27314210
 H         -0.57846397    1.50208104   -2.54038405
 H          0.62635398    2.68469691   -3.06745100
 H          1.39341104   -1.61583602   -0.73371601
 H          1.89632499   -1.37499106    1.58789897
 H          1.10377502   -0.09248700   -3.15017700
 H          2.68070102    5.19522619    0.35321799
 H          2.76118207    4.34860611   -1.21743703
 H          4.20623684    4.43453789   -0.17639001
 H          0.12029800    1.70032799    1.75429106
 C         -3.32316709   -0.91387999    1.62579596
 C         -2.01578593   -0.11099800    1.39008403
 C         -3.97690010   -1.18242896    0.26662701
 C         -3.08804798   -2.15288496   -0.51953697
 C         -1.63325703   -1.61327195   -0.49064699
 N         -1.69447696   -0.21626300   -0.04359000
 H         -3.98646212   -0.33426601    2.26999497
 H         -2.14140296    0.94682002    1.62061095
 H         -4.97359324   -1.60581696    0.40090001
 H         -3.10702991   -3.14875698   -0.07378200
 H         -1.16730905   -1.63649201   -1.47543705
 H         -3.09857297   -1.85641205    2.13002801
 H         -1.17711401   -0.50953501    1.95636904
 C         -4.05865812    0.14069800   -0.50281501
 H         -3.43792200   -2.23638892   -1.55079806
 H         -1.00438297   -2.15748501    0.21252200
 C         -2.61620498    0.58095402   -0.86765099
 H         -4.54194593    0.90478402    0.10969400
 H         -4.63732576    0.02511600   -1.42082202
 H         -2.44042206    1.63608003   -0.66020799
 H         -2.38855004    0.37353000   -1.91230202
 O          2.94197297   -2.60133910    1.38818395
 O          1.64176595   -3.10114002   -0.35708901
 C          3.07464504   -4.80892515    0.47940400
 C          2.50907898   -3.40020108    0.51482499
 H          2.29363990   -5.52691698    0.22546500
 H          3.53679395   -5.07187414    1.43056798
 H          3.83703494   -4.85301685   -0.30406299
