55
wb97x-d4 ma-def2-tzvp(-f) cpcm(dmso) E: -1285.243956895672, G: -1284.8228119
 C          1.31685102    2.94601202    0.70799500
 C          1.31052303    1.70475101    1.60120296
 O          2.04220891    1.95177698    2.79003906
 C          1.82611406    0.47079101    0.86027300
 O          1.62191904   -0.64840400    1.69580495
 C          1.12473094    0.33475301   -0.50022799
 C          1.20152497    1.64612997   -1.27541697
 C          0.47836900    1.63355398   -2.60784602
 O          0.74688298    2.82093096   -3.34646606
 O          0.63107401    2.70234990   -0.50261199
 O          1.55312300   -0.70288801   -1.28354394
 O          2.65472293    3.30657911    0.50752401
 H          2.26200390    1.85633397   -1.46085596
 H          0.77010697    3.76438594    1.18792403
 H          2.89717293    0.60439199    0.64686400
 H         -0.02880800    0.14241301   -0.22865200
 C          2.81388903    4.59624004   -0.08320300
 H          2.89919710    2.31315708    2.52587390
 H          0.83444202    0.79648900   -3.20703411
 H         -0.59923297    1.51957905   -2.44773507
 H          1.81923902   -1.51772594   -0.73970997
 H          1.98286200   -1.44188702    1.25168800
 H          0.44778600    3.56793594   -2.81340694
 H          3.88126206    4.81342697   -0.08402100
 H          2.28418803    5.35240078    0.50601703
 H          2.43776298    4.60454798   -1.10980499
 H          0.27803200    1.51837802    1.90619302
 C         -2.91363311   -1.70882297    1.45598197
 C         -1.45213199   -1.25293303    1.19445097
 C         -3.74953294   -1.39704394    0.21146600
 C         -3.03983688   -1.99065197   -1.01118100
 C         -1.70364702   -1.22646403   -1.22519398
 N         -1.46572006   -0.42314801   -0.02032600
 H         -3.31942701   -1.18574297    2.32463503
 H         -1.05647802   -0.65557200    2.01245093
 H         -4.75028992   -1.82116997    0.31003299
 H         -2.84133291   -3.05281496   -0.85294300
 H         -1.75901902   -0.54563701   -2.07377911
 H         -2.92118001   -2.77908492    1.67027998
 H         -0.78561097   -2.09255409    1.00553298
 C         -3.83394599    0.12503900    0.04591300
 H         -3.65587306   -1.88891900   -1.90629995
 H         -0.86001903   -1.90480804   -1.34838402
 C         -2.39492393    0.70911402    0.09580300
 H         -4.42818594    0.56972301    0.84610897
 H         -4.30562210    0.37608400   -0.90655601
 H         -2.18696594    1.21052098    1.04049397
 H         -2.20672202    1.39964902   -0.72464597
 O          2.40648890   -2.71612692    0.08645100
 O          0.49248901   -3.79481697   -0.32516101
 C          2.27061391   -4.99128008    0.75517601
 C          1.65086603   -3.75527906    0.12271500
 H          1.54374003   -5.79845715    0.84131098
 H          2.66874194   -4.74135590    1.74117005
 H          3.10921001   -5.32385588    0.13762900
