55
wb97x-d4 ma-def2-tzvp(-f) cpcm(dmso) E: -1285.246483854108, G: -1284.8253722400002
 C          1.59118104    2.83315611    1.00184500
 C          1.51665604    1.48585498    1.71836197
 O          2.35660601    1.49413502    2.86077595
 C          1.84360301    0.33195499    0.77092600
 O          1.63566506   -0.87690502    1.45095098
 C          0.99966598    0.45084700   -0.51222700
 C          1.13434398    1.84884596   -1.11356199
 C          0.30802500    2.12211108   -2.35758400
 O         -1.08509696    2.21768308   -2.08731103
 O          0.77979600    2.84150505   -0.15328400
 O          1.26298404   -0.48876700   -1.46860397
 O          2.94083405    3.07197309    0.71024799
 H          2.18910003    1.96253395   -1.39784002
 H          1.19369197    3.63142204    1.63745105
 H          2.89218998    0.42154199    0.45007601
 H         -0.14424500    0.28121099   -0.15023801
 C          3.19675708    4.39704800    0.24686199
 H          3.22642398    1.80088401    2.57140708
 H          0.67090601    3.04892802   -2.81457090
 H          0.44594499    1.30704606   -3.06801701
 H          1.25096905   -1.44206202   -1.12060106
 H          2.15164900   -1.60175002    1.01294994
 H         -1.21174300    2.97255206   -1.49989796
 H          4.27849102    4.50328779    0.17522500
 H          2.80048704    5.13248920    0.95526302
 H          2.74742603    4.56029320   -0.73650599
 H          0.49491200    1.35417295    2.08441997
 C         -3.82215095    0.05156300    0.81418997
 C         -2.44122910    0.70861101    0.53487402
 C         -3.79259801   -1.39113998    0.30004501
 C         -2.76091290   -2.18101311    1.11100101
 C         -1.39928401   -1.43407905    1.05158901
 N         -1.53342700   -0.34861600    0.06669200
 H         -4.60214710    0.62401599    0.30883399
 H         -2.49974990    1.46065295   -0.24695300
 H         -4.77990913   -1.84574604    0.40110901
 H         -3.07737207   -2.27217698    2.15178394
 H         -0.58709800   -2.08095288    0.72915000
 H         -4.03342199    0.06448000    1.88551199
 H         -2.00856495    1.15162098    1.43139803
 C         -3.36211395   -1.39016604   -1.16943395
 H         -2.65089607   -3.18778610    0.70220602
 H         -1.13392997   -0.98296899    2.00577998
 C         -1.90298402   -0.86047101   -1.25980699
 H         -4.02596521   -0.75312102   -1.75774205
 H         -3.40700698   -2.39935303   -1.58250201
 H         -1.80786705   -0.04412300   -1.97205400
 H         -1.19889402   -1.65129101   -1.51331103
 O          1.15835595   -3.00594592   -0.97523803
 O          2.91406393   -2.95834303    0.40186399
 C          2.27691388   -5.06390619   -0.53438300
 C          2.11453700   -3.56359100   -0.36082500
 H          1.58482897   -5.56371403    0.15020899
 H          3.29125500   -5.37894011   -0.28988099
 H          2.02034712   -5.36549187   -1.55062699
