55
wb97x-d4 ma-def2-tzvp(-f) cpcm(dmso) E: -1285.243177206133, G: -1284.82220235
 C          1.62725699    2.74905705    0.94005603
 C          1.38640201    1.43330204    1.68562603
 O          2.23145604    1.30670202    2.81765008
 C          1.61317301    0.22636899    0.78066403
 O          1.18422997   -0.94458503    1.43165898
 C          0.86128199    0.41694400   -0.54289299
 C          1.09098303    1.79570401   -1.15979099
 C          0.24226899    2.09413004   -2.39160991
 O          0.59666198    1.28567195   -3.50643396
 O          0.79130000    2.80825305   -0.20566501
 O          1.08378899   -0.55708599   -1.47837198
 O          2.97968793    2.85276699    0.61403602
 H          2.14800406    1.84732699   -1.44838905
 H          1.31703901    3.60073400    1.55698705
 H          2.68268704    0.16441700    0.53779602
 H         -0.30400899    0.35058901   -0.22459400
 C          3.32953906    4.12590408    0.07350200
 H          1.91877401    1.91391504    3.49842501
 H         -0.81973499    1.98728001   -2.14886403
 H          0.41872099    3.13282704   -2.67762709
 H          1.29969597   -1.48313296   -1.11400998
 H          1.81906199   -1.68229198    1.21511805
 H          0.65089399    0.37245199   -3.19020700
 H          2.88022304    4.27417278   -0.91258800
 H          4.41516685    4.14305115   -0.01578900
 H          3.00311089    4.92881107    0.74376500
 H          0.33716500    1.44112003    1.99822199
 C         -3.09813595   -2.17195892   -0.31309599
 C         -1.66115606   -1.58899605   -0.37810600
 C         -3.97801495   -1.20388806    0.48528299
 C         -4.12312984    0.09599700   -0.31225401
 C         -2.70529294    0.58390802   -0.71535403
 N         -1.73228002   -0.19225900    0.06816500
 H         -3.06389904   -3.15220809    0.16546400
 H         -0.97129500   -2.10789490    0.28465500
 H         -4.95838785   -1.64723396    0.66770202
 H         -4.71581793   -0.06419600   -1.21449995
 H         -2.55853510    1.64077103   -0.49527901
 H         -3.49790692   -2.30117393   -1.32113504
 H         -1.25995505   -1.60163498   -1.39100599
 C         -3.28313994   -0.88721299    1.81304801
 H         -4.62250280    0.85627198    0.29197100
 H         -2.50047994    0.40100399   -1.76984096
 C         -1.98730803   -0.08570200    1.51374805
 H         -3.03635597   -1.81183100    2.33947301
 H         -3.93169594   -0.29240799    2.45844102
 H         -1.12561095   -0.48914799    2.03994894
 H         -2.09781194    0.97267199    1.75004995
 O          1.68383205   -2.99270105   -1.04899704
 O          2.82743001   -2.90744305    0.86941302
 C          3.14652896   -4.80443001   -0.54356998
 C          2.49952602   -3.47140503   -0.20902200
 H          3.42317891   -5.34199095    0.36365399
 H          4.05828810   -4.60604000   -1.11516798
 H          2.48510003   -5.41327000   -1.16035998
