55
wb97x-d4 ma-def2-tzvp(-f) cpcm(dmso) E: -1285.242042097336, G: -1284.82214324
 C          1.66049600    2.63323689    0.95654202
 C          1.40336096    1.30422699    1.65427899
 O          2.24568295    1.19963801    2.78917098
 C          1.60132098    0.12300200    0.71015698
 O          1.20903301   -1.03439498    1.42538095
 C          0.80571699    0.33135900   -0.58728099
 C          1.04222703    1.73217595   -1.15310502
 C          0.17672400    2.07937908   -2.34837794
 O          0.58462799    3.31171989   -2.93381405
 O          0.79557598    2.72894311   -0.16332100
 O          1.01417899   -0.60781199   -1.55996394
 O          3.00646091    2.72139692    0.60127300
 H          2.09317994    1.77469802   -1.46387303
 H          1.37976098    3.47023106    1.60527599
 H          2.66160202    0.06032700    0.43059701
 H         -0.34723201    0.25813499   -0.24458000
 C          3.36205697    3.99945092    0.07477300
 H          2.09730411    0.32336399    3.16730309
 H          0.28433001    1.30980301   -3.11226702
 H         -0.87310600    2.13241696   -2.04351902
 H          1.28467703   -1.51106095   -1.17590594
 H          1.47044396   -1.82191896    0.90065598
 H          0.49835101    3.99520707   -2.25784993
 H          3.06147194    4.79481602    0.76568401
 H          2.89297390    4.16968203   -0.89837599
 H          4.44550896    4.00294924   -0.03839800
 H          0.35319501    1.32211006    1.96792603
 C         -3.15142798   -2.25935698   -0.35661599
 C         -1.71195197   -1.68010998   -0.40716800
 C         -4.03203011   -1.29609799    0.44653600
 C         -4.16856813    0.01031000   -0.34123701
 C         -2.74591494    0.50304800   -0.72254401
 N         -1.78196800   -0.28918499    0.05463200
 H         -3.12239695   -3.24460793    0.11183200
 H         -1.03209698   -2.21230507    0.25563401
 H         -5.01479006   -1.73795497    0.61945701
 H         -4.75030994   -0.14322001   -1.25170004
 H         -2.60068989    1.55454898   -0.47781101
 H         -3.54565597   -2.37664604   -1.36823201
 H         -1.30236602   -1.68359995   -1.41687906
 C         -3.34404111   -0.99465501    1.78203106
 H         -4.67549801    0.76543599    0.26302701
 H         -2.53000307    0.34305200   -1.77851105
 C         -2.03962207   -0.19915301    1.49975002
 H         -3.10736299   -1.92512500    2.30262494
 H         -3.99347806   -0.40083700    2.42737007
 H         -1.18304300   -0.61732900    2.02360606
 H         -2.14120197    0.85657400    1.75109899
 O          3.37493610   -3.05327702   -1.93515301
 O          1.69129801   -2.84037900   -0.48288900
 C          3.37867308   -4.43437004    0.02713400
 C          2.79526210   -3.36447001   -0.88250899
 H          3.57281303   -4.00465584    1.01323998
 H          4.30239105   -4.84141302   -0.38266101
 H          2.64912796   -5.23730707    0.15755001
