55
wb97x-d4 ma-def2-tzvp(-f) cpcm(dmso) E: -1285.244042285179, G: -1284.822081
 C          1.64567697    2.82173109    1.01723099
 C          1.51562798    1.47259796    1.73045897
 O          2.36631989    1.39806604    2.86260605
 C          1.85359299    0.32186100    0.79093498
 O          1.62650597   -0.89147300    1.45725501
 C          1.02272701    0.45226201   -0.50093597
 C          1.16149998    1.85265505   -1.09528196
 C          0.33515000    2.13399410   -2.33728600
 O         -1.05816400    2.22789598   -2.06762791
 O          0.81382298    2.84144497   -0.12923200
 O          1.29393697   -0.48327300   -1.45886898
 O          2.98733807    3.04294801    0.69976598
 H          2.21597409    1.96241796   -1.38169003
 H          1.26695597    3.63068104    1.65327799
 H          2.90687394    0.40728599    0.48818499
 H         -0.12417400    0.28226301   -0.14942101
 C          3.23329711    4.35161781    0.18860000
 H          2.02603006    1.99880898    3.53594494
 H          0.69840401    3.06376791   -2.78807998
 H          0.47311601    1.32363999   -3.05317712
 H          1.27294302   -1.43862903   -1.11682904
 H          2.14751101   -1.61439002    1.02253699
 H         -1.18400896    2.97358990   -1.46838200
 H          4.31396723    4.45762014    0.10002200
 H          2.84512401    5.11090183    0.87677097
 H          2.77219009    4.48546696   -0.79406297
 H          0.46709001    1.37041104    2.03556800
 C         -3.80743694    0.04411000    0.80425102
 C         -2.43651295    0.71060699    0.50727397
 C         -3.78099108   -1.38962996    0.26471600
 C         -2.75050998   -2.19210410    1.06469095
 C         -1.39865506   -1.42826295    1.04443300
 N         -1.51899004   -0.34529600    0.05482000
 H         -4.59892607    0.62354702    0.32543501
 H         -2.50738192    1.44564199   -0.28943399
 H         -4.76889706   -1.84496105    0.35492799
 H         -3.07649899   -2.31776690    2.09893203
 H         -0.56950802   -2.06510997    0.74719000
 H         -3.99636793    0.03666300    1.87989604
 H         -2.00653911    1.17659104    1.39333200
 C         -3.34363890   -1.36236405   -1.20292306
 H         -2.62357402   -3.18499899    0.62750697
 H         -1.16749001   -0.97215497    2.00538802
 C         -1.87392497   -0.86288899   -1.27344501
 H         -3.99147296   -0.69708502   -1.77790594
 H         -3.40630794   -2.35938501   -1.64249301
 H         -1.75020695   -0.05702400   -1.99323499
 H         -1.18158901   -1.67081106   -1.50480998
 O          1.17016900   -3.00292397   -0.97988099
 O          2.91312003   -2.97324610    0.41412801
 C          2.32334208   -5.05398178   -0.60847098
 C          2.12174201   -3.56822705   -0.36457601
 H          2.91944098   -5.50615501    0.18388300
 H          2.85171008   -5.17897987   -1.55822301
 H          1.36057699   -5.55996704   -0.69369602
