55
wb97x-d4 ma-def2-tzvp(-f) cpcm(dmso) E: -1285.244018811307, G: -1284.8220440500002
 C          1.73768604    1.79699194    0.87748897
 C          1.35155499    0.36765999    1.28323400
 O          2.18964195   -0.13634799    2.29403996
 C          1.33326197   -0.51639003    0.03632100
 O          0.92967498   -1.84033096    0.28353301
 C          0.41396400    0.10101600   -1.01002705
 C          0.84481502    1.52869594   -1.32075405
 C          0.00756300    2.28056598   -2.33891392
 O         -1.28648698    2.61450005   -1.85528803
 O          0.84488702    2.28925395   -0.11627800
 O          0.30809700   -0.66860402   -2.14792895
 O          3.06082392    1.79078197    0.43307900
 H          1.86301005    1.46008694   -1.72702599
 H          1.61849403    2.48444700    1.72186995
 H          2.34020996   -0.51402098   -0.40322801
 H         -0.70710403    0.13233000   -0.50950402
 C          3.59013796    3.09569001    0.20887201
 H          2.96489811   -0.60245901    1.88653696
 H          0.55262399    3.18453789   -2.62991691
 H         -0.12660401    1.65866101   -3.22503710
 H          0.39827999   -1.59524906   -1.86824405
 H          1.76111901   -2.37205911    0.44707599
 H         -1.16811895    3.23662496   -1.12726700
 H          3.10268402    3.57773495   -0.64333302
 H          4.65220118    2.97354388   -0.00162200
 H          3.46161890    3.71948290    1.10027397
 H          0.33998901    0.42162901    1.69741702
 C         -4.05197477    0.56839597    1.17239797
 C         -2.64003706    0.96804500    0.66848701
 C         -4.52594900   -0.65087599    0.37413001
 C         -3.63923907   -1.84456897    0.73911601
 C         -2.15496612   -1.42313695    0.57912701
 N         -2.13263392   -0.14426100   -0.15443200
 H         -4.73098421    1.41176701    1.03494501
 H         -2.66786194    1.85188794    0.03735600
 H         -5.57013083   -0.87009102    0.60316002
 H         -3.81346512   -2.15539193    1.77078295
 H         -1.57797503   -2.14867496    0.01080500
 H         -4.01843023    0.33053100    2.23777604
 H         -1.94292796    1.13182700    1.48924994
 C         -4.36045504   -0.35579899   -1.12047100
 H         -3.86064601   -2.69281411    0.08778700
 H         -1.66599000   -1.25925398    1.53828704
 C         -2.84433794   -0.24931701   -1.43899095
 H         -4.86315680    0.57909900   -1.37802804
 H         -4.79827881   -1.15278602   -1.72377801
 H         -2.60901809    0.63428497   -2.02773190
 H         -2.47066593   -1.13790202   -1.94585896
 O          3.13903999   -3.21023202    0.57255101
 O          4.31117821   -1.47153199    1.36070395
 C          5.49267197   -3.47196102    0.81687802
 C          4.21729994   -2.64765406    0.91812199
 H          5.57550621   -4.08707905    1.71816599
 H          6.37138700   -2.82970810    0.75740898
 H          5.45311689   -4.14157295   -0.04332200
