55
wb97x-d4 ma-def2-tzvp(-f) cpcm(dmso) E: -1285.241996110775, G: -1284.8218800500001
 C          1.47407699    2.81336808    0.67508101
 C          1.29518199    1.58123899    1.55224597
 O          2.04914594    1.74154401    2.74167991
 C          1.68105197    0.29987600    0.82026899
 O          1.38300300   -0.75896102    1.70694494
 C          0.93882501    0.22389200   -0.52402699
 C          1.13011801    1.52842402   -1.29858005
 C          0.35549101    1.60237002   -2.60011506
 O          0.72163898    2.75668097   -3.34953594
 O          0.71509701    2.64403892   -0.51062399
 O          1.25513899   -0.84514600   -1.32050705
 O          2.83101296    3.00792789    0.41745499
 H          2.19944906    1.61544597   -1.52697599
 H          1.04620397    3.69666100    1.16177404
 H          2.75513697    0.32034501    0.58863002
 H         -0.21853000    0.14032599   -0.23362499
 C          3.10461903    4.24886990   -0.23156901
 H          1.94630504    0.92503202    3.24722099
 H          0.58977097    0.73367000   -3.21430397
 H         -0.72018802    1.60918903   -2.39284110
 H          1.44347298   -1.68470895   -0.78164202
 H          1.62698400   -1.61363196    1.28932500
 H          0.55063999    3.52764893   -2.79450011
 H          2.67863798    5.08096790    0.33995700
 H          2.69843507    4.26105118   -1.24684000
 H          4.18846703    4.35084820   -0.27186099
 H          0.22570500    1.52265203    1.79095805
 C         -3.20264411   -1.52421403    1.48076701
 C         -1.71903098   -1.16011095    1.20243299
 C         -4.02752018   -1.18172204    0.23683199
 C         -3.35818410   -1.82622099   -0.98288000
 C         -1.99197698   -1.12454700   -1.21746194
 N         -1.69571400   -0.33750600   -0.01602700
 H         -3.56912708   -0.96360302    2.34334898
 H         -1.27684796   -0.58473301    2.01220107
 H         -5.04925394   -1.54925299    0.34526899
 H         -3.20762897   -2.89391088   -0.81105202
 H         -2.02880311   -0.43959799   -2.06371188
 H         -3.27162504   -2.58836007    1.71305001
 H         -1.10470402   -2.03976011    1.01693404
 C         -4.02812910    0.34091499    0.05466400
 H         -3.97502589   -1.70814395   -1.87530005
 H         -1.18213999   -1.83804297   -1.36854303
 C         -2.55907393    0.84568000    0.10434700
 H         -4.59912395    0.82663602    0.84771103
 H         -4.48153305    0.60718799   -0.90251398
 H         -2.32126904    1.33185101    1.04990602
 H         -2.33382893    1.52611601   -0.71526301
 O          1.73615503   -2.89758706    0.15568499
 O          3.26943398   -3.68357205   -1.26400900
 C          3.24291801   -4.54242182    0.97694498
 C          2.73508501   -3.64811206   -0.14384100
 H          3.47790694   -3.93472600    1.85395098
 H          4.12513494   -5.10209990    0.66825002
 H          2.45165801   -5.23975801    1.26431799
