55
wb97x-d4 ma-def2-tzvp(-f) cpcm(dmso) E: -1285.243272056001, G: -1284.82186329
 C          1.55513704    2.81609797    1.07350898
 C          1.61011398    1.42112005    1.69558299
 O          2.46135712    1.42302096    2.82897496
 C          2.01928902    0.35956800    0.67504001
 O          1.90847802   -0.89452899    1.31169498
 C          1.15575302    0.49430099   -0.59320903
 C          1.18686795    1.93741703   -1.09808695
 C          0.37034801    2.22830200   -2.34397292
 O         -1.03271604    2.18345094   -2.11743903
 O          0.74039203    2.82883000   -0.07973600
 O          1.47112095   -0.35438800   -1.61998200
 O          2.87388802    3.20108199    0.80189300
 H          2.23442602    2.15145802   -1.34881604
 H          1.08691394    3.52479100    1.76447797
 H          3.05753803    0.54328501    0.35987899
 H          0.03035000    0.23883300   -0.23439500
 C          3.00252104    4.57769823    0.44840699
 H          3.29781199    1.82364905    2.55600810
 H          0.66299897    3.21403098   -2.72089005
 H          0.60019100    1.48368001   -3.10585690
 H          1.70552397   -1.28731596   -1.30243003
 H          2.11746097   -1.60775900    0.67379802
 H         -1.25106096    2.90972304   -1.52130401
 H          4.06897688    4.78639507    0.37373200
 H          2.55548096    5.21300411    1.22048402
 H          2.52219391    4.78007507   -0.51273501
 H          0.60965198    1.17581499    2.06049895
 C         -3.61638403   -0.11917500    0.83182299
 C         -2.28234196    0.59782201    0.48836899
 C         -3.56464291   -1.54198396    0.26451400
 C         -2.48637795   -2.32610893    1.01890504
 C         -1.16869605   -1.50651395    0.98935199
 N         -1.34418595   -0.42618701    0.00674000
 H         -4.44569588    0.44227499    0.39787599
 H         -2.40923095    1.32660103   -0.30682701
 H         -4.53533602   -2.02858090    0.37514400
 H         -2.78072309   -2.49348307    2.05659389
 H         -0.32097000   -2.11284089    0.68471199
 H         -3.75845289   -0.15145600    1.91425204
 H         -1.84154201    1.08293498    1.35858095
 C         -3.17090988   -1.47482800   -1.21465397
 H         -2.32876110   -3.29990196    0.54974103
 H         -0.94431901   -1.04622400    1.95021904
 C         -1.71298802   -0.94656700   -1.31672597
 H         -3.84843493   -0.81022799   -1.75545394
 H         -3.22696400   -2.46323705   -1.67440796
 H         -1.62402999   -0.13314199   -2.03338099
 H         -1.00739396   -1.73871303   -1.56536400
 O          0.44681200   -3.66563296   -1.77064097
 O          2.14767909   -2.67350292   -0.71657902
 C          1.44688296   -4.80201197    0.08596300
 C          1.32311404   -3.64304709   -0.88991100
 H          2.49370003   -5.08694410    0.20651001
 H          0.85960001   -5.65872383   -0.24324800
 H          1.07957804   -4.47223902    1.06277001
