55
wb97x-d4 ma-def2-tzvp(-f) cpcm(dmso) E: -1285.24317611118, G: -1284.8217700300002
 C          1.29170096    3.03435302    0.94398397
 C          1.04471695    2.04940009    2.08572507
 O          1.48250306    2.62820196    3.30329990
 C          1.73331594    0.71853697    1.81650698
 O          1.36154103   -0.16978700    2.85771298
 C          1.35634696    0.19265500    0.43355700
 C          1.66636097    1.27354300   -0.60648900
 C          1.43179202    0.91157597   -2.05796599
 O          0.10698600    0.49546599   -2.31699491
 O          0.90807098    2.44289804   -0.28631499
 O          1.92891502   -1.03178704    0.23905300
 O          2.63479495    3.41517711    0.95382500
 H          2.73706198    1.49897897   -0.50922602
 H          0.64502102    3.91205502    1.05080903
 H          2.82075906    0.86899799    1.82076395
 H          0.14671600    0.04142900    0.46393701
 C          2.92200708    4.46800089    0.03461800
 H          1.29372895    1.99251795    4.00479412
 H          1.67197204    1.80149901   -2.65206003
 H          2.14467001    0.12752999   -2.33313107
 H          1.77664399   -1.42948699   -0.67328203
 H          1.88015699   -0.97715300    2.76016998
 H          0.15390900   -0.41683301   -2.70871091
 H          3.96021605    4.75468779    0.19819500
 H          2.26951003    5.32800579    0.22200701
 H          2.79353905    4.13472414   -0.99890000
 H         -0.03758400    1.88445699    2.12076306
 C         -3.55654097   -0.07665700   -0.21475400
 C         -2.15017390    0.55581099   -0.04732900
 C         -3.61655211   -1.36272395    0.61718398
 C         -3.14165092   -1.05315399    2.03938293
 C         -1.63614500   -0.67605299    1.98971999
 N         -1.28385103   -0.45836699    0.57655102
 H         -3.74221802   -0.30182001   -1.26744294
 H         -1.70313501    0.83635098   -0.99730599
 H         -4.63441420   -1.75612104    0.63444698
 H         -3.71961594   -0.22698399    2.45921397
 H         -0.99845201   -1.47109604    2.37030101
 H         -4.31334686    0.63656199    0.11677900
 H         -2.16703606    1.41905296    0.61799502
 C         -2.66032195   -2.39091492    0.00485300
 H         -3.27142191   -1.92097402    2.68849397
 H         -1.43190503    0.23670299    2.54454899
 C         -1.27177095   -1.72211504   -0.17546301
 H         -3.02187204   -2.72910905   -0.96791703
 H         -2.57777095   -3.26242089    0.65793002
 H         -1.06480396   -1.48640501   -1.21556199
 H         -0.46542799   -2.34062600    0.21795200
 O          1.80054295   -2.48273301   -1.87325895
 O          0.25662699   -1.90596104   -3.38804603
 C          1.25958896   -4.06766891   -3.55747390
 C          1.09294605   -2.70881391   -2.89469290
 H          0.81619197   -4.08171415   -4.55269194
 H          0.76052201   -4.81838799   -2.93769503
 H          2.31663489   -4.33330488   -3.61236191
