55
wb97x-d4 ma-def2-tzvp(-f) cpcm(dmso) E: -1285.246710516695, G: -1284.82535723
 C          1.58945894    3.01168799    0.65626597
 C          1.32033598    1.82047796    1.56545401
 O          2.02373004    1.98364794    2.78416896
 C          1.70311499    0.51109999    0.88750499
 O          1.38243496   -0.52590102    1.78038299
 C          1.00107896    0.40004200   -0.47499600
 C          1.23291004    1.67528498   -1.28852201
 C          0.48917001    1.75678599   -2.61037803
 O         -0.90848202    1.95696104   -2.43904591
 O          0.86250502    2.83684206   -0.54777902
 O          1.35494196   -0.68867099   -1.22312701
 O          2.96205306    3.12562609    0.43285799
 H          2.30700803    1.70088398   -1.51380599
 H          1.19489002    3.93534207    1.09374106
 H          2.78160596    0.51802403    0.67718399
 H         -0.17986000    0.28625399   -0.22484399
 C          3.31663609    4.31363821   -0.27344000
 H          1.94659805    1.14028800    3.25084805
 H          0.92101902    2.57287312   -3.19962811
 H          0.61933100    0.82403302   -3.15952396
 H          1.38241005   -1.55288601   -0.69648701
 H          1.96958804   -1.31252205    1.60673594
 H         -1.02080500    2.77718997   -1.94284201
 H          2.93984604    4.28996897   -1.29980099
 H          4.40500498    4.35926390   -0.28650400
 H          2.91824293    5.19661617    0.23844799
 H          0.23886199    1.80615199    1.75339901
 C         -2.84989905   -2.13028598    0.96955901
 C         -1.51576197   -1.33712995    0.99749500
 C         -3.83724999   -1.39378405    0.05846500
 C         -3.30997801   -1.45492399   -1.37831795
 C         -1.83596301   -0.96633601   -1.38289702
 N         -1.57600200   -0.33715901   -0.08051100
 H         -3.24205899   -2.20682001    1.98538899
 H         -1.37408400   -0.80195397    1.93425298
 H         -4.82532883   -1.85345495    0.11883700
 H         -3.35130596   -2.47544694   -1.76301503
 H         -1.65272903   -0.22752599   -2.15893292
 H         -2.67645407   -3.14242792    0.59712797
 H         -0.65258700   -1.97511899    0.82052702
 C         -3.90724397    0.07300600    0.49711201
 H         -3.91550803   -0.82153797   -2.03036308
 H         -1.13560903   -1.79322505   -1.49096501
 C         -2.53125811    0.73871702    0.22152700
 H         -4.14859009    0.13564301    1.56048799
 H         -4.68083715    0.60688800   -0.05775200
 H         -2.16163492    1.28893399    1.08624005
 H         -2.56366611    1.39962196   -0.64111602
 O          1.42081404   -3.07634807   -0.25831801
 O          2.84319210   -2.67400503    1.41489005
 C          2.57383895   -4.93473911    0.68681198
 C          2.26595211   -3.44935703    0.60517198
 H          2.60673094   -5.37489605   -0.31071299
 H          1.76690900   -5.42214823    1.24216998
 H          3.51267910   -5.11319208    1.21057200
