55
wb97x-d4 ma-def2-tzvp(-f) cpcm(dmso) E: -1285.245278574282, G: -1284.8215294000001
 C          1.56472504    2.53774905    1.31405306
 C          1.57130206    1.09629905    1.82183695
 O          2.48105502    0.95873600    2.90138197
 C          1.85872996    0.10373700    0.69472599
 O          1.67854595   -1.20038402    1.18417501
 C          0.94746298    0.39872599   -0.50863701
 C          1.01896000    1.87403798   -0.89999998
 C          0.10377800    2.25890994   -2.04126501
 O          0.52242100    3.53330994   -2.52973700
 O          0.68261498    2.68821597    0.22318099
 O          1.16366601   -0.38961601   -1.60637295
 O          2.88675094    2.87040496    0.98743498
 H          2.05202293    2.07807899   -1.20858896
 H          1.18412697    3.21442890    2.08659101
 H          2.89142489    0.24963100    0.34552699
 H         -0.15591300    0.18396200   -0.10495200
 C          3.07287788    4.26058483    0.72482002
 H          3.32460904    1.33118296    2.61119390
 H          0.17260900    1.50093496   -2.82536006
 H         -0.92996800    2.30889511   -1.68317294
 H          1.24906695   -1.37826800   -1.39970505
 H          2.23055911   -1.83545399    0.65663302
 H         -0.08983000    3.79961395   -3.22465897
 H          4.14187479    4.41520405    0.58358997
 H          2.72285390    4.85907602    1.57283604
 H          2.53727603    4.56223488   -0.17923100
 H          0.57871902    0.88120902    2.22543001
 C         -3.50200510   -1.38968301   -0.95198703
 C         -2.07605910   -0.79407501   -1.13568997
 C         -3.92096996   -1.22082305    0.51169801
 C         -3.86135697    0.26313701    0.88556802
 C         -2.39865398    0.76738399    0.71469098
 N         -1.61057198   -0.35065401    0.18137901
 H         -3.49812794   -2.44654703   -1.22460198
 H         -1.36801004   -1.53200495   -1.51111603
 H         -4.93409204   -1.60094798    0.65521997
 H         -4.52616119    0.84362799    0.24325401
 H         -1.95279098    1.06624699    1.66243505
 H         -4.19860601   -0.87067300   -1.61255205
 H         -2.08135200    0.06951300   -1.79941905
 C         -2.93988991   -1.99202502    1.39878905
 H         -4.17698717    0.40794200    1.92022204
 H         -2.33453012    1.59522295    0.01118900
 C         -1.50056100   -1.46186602    1.13508999
 H         -2.98014498   -3.05961990    1.17542005
 H         -3.19419003   -1.85486698    2.45152593
 H         -0.85608798   -2.21771908    0.69161600
 H         -1.03055501   -1.08323002    2.04019189
 O          1.32629800   -2.95263100   -1.53586602
 O          3.05950594   -3.03436089   -0.13066199
 C          2.63493800   -4.94065905   -1.51383197
 C          2.31808305   -3.54092097   -1.01497102
 H          3.30450702   -5.46179819   -0.83011103
 H          3.12157702   -4.85849810   -2.49004507
 H          1.71447098   -5.51091480   -1.64916694
