55
wb97x-d4 ma-def2-tzvp(-f) cpcm(dmso) E: -1285.242058384126, G: -1284.82150961
 C          1.52628601    2.77891111    1.14130700
 C          1.59714699    1.36857903    1.72613704
 O          2.45872593    1.34458697    2.85178709
 C          2.00105810    0.33446801    0.67488599
 O          1.88257205   -0.93766999    1.27349997
 C          1.13672304    0.50338900   -0.58868003
 C          1.16834199    1.96186101   -1.04999697
 C          0.40532401    2.27723789   -2.31545806
 O         -0.99166799    2.08918190   -2.11785102
 O          0.70557398    2.81528211   -0.00653300
 O          1.45376205   -0.32154500   -1.63371003
 O          2.84162498    3.18392897    0.87656403
 H          2.22008491    2.18791008   -1.27036798
 H          1.05556095    3.46412992    1.85394001
 H          3.04024792    0.52242100    0.36545399
 H          0.01877400    0.23155899   -0.22872201
 C          2.95637107    4.57102919    0.56228101
 H          3.28760791    1.76404905    2.58408093
 H          0.61520600    3.31800103   -2.58505893
 H          0.77970302    1.62700701   -3.11139393
 H          1.69884503   -1.25843704   -1.32822597
 H          2.10976911   -1.63052201    0.61976701
 H         -1.43576396    2.30120397   -2.94666910
 H          2.50148511    5.17967892    1.35111904
 H          2.47547889    4.79573011   -0.39363900
 H          4.02072287    4.79310703    0.49563700
 H          0.60139400    1.11172497    2.09512711
 C         -3.69954896    0.06036200    0.52255398
 C         -2.26354194    0.65156001    0.49718001
 C         -3.60418510   -1.46245301    0.37442800
 C         -2.61624289   -1.99171901    1.41811800
 C         -1.19815695   -1.46434104    1.06823397
 N         -1.35931802   -0.41741899    0.04780800
 H         -4.29113579    0.48203799   -0.29317400
 H         -2.17125511    1.48518705   -0.19403701
 H         -4.58580017   -1.91819406    0.51614499
 H         -2.90427494   -1.65224302    2.41552997
 H         -0.56443602   -2.24135995    0.64499700
 H         -4.18220377    0.32849199    1.46418095
 H         -1.93303800    0.96231401    1.48832595
 C         -3.06185007   -1.79163802   -1.02156901
 H         -2.60188103   -3.08312893    1.42257595
 H         -0.69742697   -1.03228605    1.93089402
 C         -1.75496697   -0.98206401   -1.24809206
 H         -3.78700805   -1.52387202   -1.79215801
 H         -2.85909891   -2.86193705   -1.10327899
 H         -1.90156603   -0.14945900   -1.93082201
 H         -0.94173402   -1.61474299   -1.60490704
 O          0.50511903   -3.63534594   -1.86463404
 O          2.20200610   -2.64010692   -0.80716401
 C          1.63567805   -4.84805012   -0.13154700
 C          1.41222298   -3.63133407   -1.01577604
 H          1.00680804   -5.68258476   -0.44015101
 H          1.39905000   -4.57980680    0.90206200
 H          2.68682694   -5.14266491   -0.16100600
