55
wb97x-d4 ma-def2-tzvp(-f) cpcm(dmso) E: -1285.24571999714, G: -1284.82149838
 C          1.54487002    2.55788994    1.28616500
 C          1.57391596    1.11669695    1.79344797
 O          2.50599504    0.98713899    2.85490108
 C          1.84983802    0.12746800    0.66088498
 O          1.68980396   -1.17813098    1.15300703
 C          0.91643500    0.41567799   -0.52722698
 C          0.96223098    1.89268100   -0.91695702
 C          0.01808500    2.27580905   -2.04309797
 O          0.27893201    3.58897090   -2.53088403
 O          0.63887298    2.69999504    0.21357800
 O          1.12369299   -0.36801401   -1.63006902
 O          2.85698605    2.90010405    0.93119198
 H          1.98933494    2.10622001   -1.24245596
 H          1.17518604    3.23218107    2.06604695
 H          2.87502408    0.28253099    0.29403800
 H         -0.17879701    0.18754099   -0.10747900
 C          3.02700710    4.29035187    0.65870303
 H          3.34058905    1.36601996    2.54765701
 H          0.09492400    1.53680098   -2.84411311
 H         -1.00926006    2.28967094   -1.67534196
 H          1.22876203   -1.35345197   -1.42385006
 H          2.24385691   -1.80735195    0.62064600
 H          1.12580097    3.57330489   -2.99218893
 H          4.09152508    4.45191097    0.49335501
 H          2.69139600    4.89020014    1.51153004
 H          2.46959710    4.58404112   -0.23486900
 H          0.59118599    0.89183599    2.21561599
 C         -3.53137398   -1.39450097   -0.91738898
 C         -2.10132194   -0.81313598   -1.11483598
 C         -3.92091703   -1.25369895    0.55716699
 C         -3.86402011    0.22400101    0.95521897
 C         -2.41482210    0.74911201    0.73790401
 N         -1.62247598   -0.36184999    0.19526200
 H         -3.54569793   -2.44459009   -1.21447301
 H         -1.40225303   -1.56082201   -1.48728001
 H         -4.92832899   -1.64334500    0.71475101
 H         -4.55863190    0.80834699    0.34903800
 H         -1.94781494    1.06788504    1.66878796
 H         -4.23441887   -0.85204202   -1.55187500
 H         -2.10316706    0.04300500   -1.78787899
 C         -2.91699791   -2.03335309    1.41075802
 H         -4.14272690    0.34580201    2.00340104
 H         -2.38475299    1.56891000    0.02286400
 C         -1.48957396   -1.47091806    1.14875996
 H         -2.94311094   -3.09435010    1.15582597
 H         -3.16137695   -1.93185604    2.46980095
 H         -0.82706600   -2.21189594    0.70668602
 H         -1.02950394   -1.08100295    2.05435300
 O          3.07962799   -3.00044203   -0.17148601
 O          1.32585299   -2.93001103   -1.55191195
 C          2.61570692   -4.92726994   -1.51712894
 C          2.32649899   -3.51307011   -1.04229403
 H          1.76731205   -5.56837416   -1.26423204
 H          3.51999402   -5.32451105   -1.05753505
 H          2.71956706   -4.93411922   -2.60449195
