55
wb97x-d4 ma-def2-tzvp(-f) cpcm(dmso) E: -1285.241742121796, G: -1284.8214792800002
 C          1.74791300    2.67334890    0.97741199
 C          1.50507295    1.34689796    1.68388104
 O          2.35994196    1.25537097    2.81075692
 C          1.70802999    0.16715300    0.74136901
 O          1.39458704   -0.99071401    1.48878300
 C          0.85852599    0.35387000   -0.52675301
 C          1.08357406    1.75212502   -1.11252797
 C          0.22150099    2.11260295   -2.30967808
 O         -1.14089704    2.33088589   -1.96410501
 O          0.87247097    2.76573110   -0.13363400
 O          1.04975700   -0.58400702   -1.50584400
 O          3.08943892    2.76016903    0.60398400
 H          2.12837005    1.76960194   -1.44886303
 H          1.47506702    3.51374698    1.62501299
 H          2.75712299    0.14154400    0.41557699
 H         -0.28900799    0.25414100   -0.16238099
 C          3.44225502    4.03815222    0.07632800
 H          2.24860692    0.36588201    3.17078209
 H          0.64295399    3.00809002   -2.77864909
 H          0.24642099    1.29712903   -3.03274703
 H          1.27892399   -1.49602699   -1.12323999
 H          1.58875501   -1.78143597    0.94104600
 H         -1.16509295    3.06875491   -1.34247994
 H          4.52240086    4.03298187   -0.06514500
 H          3.16718102    4.83187723    0.77967298
 H          2.94963408    4.21843290   -0.88320398
 H          0.45593199    1.34877205    2.00571203
 C         -3.93792510    0.17973600    0.92586303
 C         -2.53665090    0.77480799    0.61647600
 C         -4.03401089   -1.20620406    0.27904201
 C         -3.03137398   -2.13740492    0.96683502
 C         -1.63173294   -1.46467996    0.94226801
 N         -1.71674097   -0.30277100    0.04488100
 H         -4.70619202    0.84629297    0.52994102
 H         -2.58628893    1.57299399   -0.11934700
 H         -5.04691410   -1.60011399    0.38006699
 H         -3.32169890   -2.32080507    2.00294709
 H         -0.86350799   -2.13401103    0.56023002
 H         -4.08132792    0.10132300    2.00563407
 H         -2.03937006    1.13990200    1.51445198
 C         -3.65584493   -1.09446001   -1.20102298
 H         -2.99371004   -3.09898710    0.45055199
 H         -1.32979298   -1.10392404    1.92315304
 C         -2.15850306   -0.68864298   -1.30117297
 H         -4.27826786   -0.34544700   -1.69525898
 H         -3.80524492   -2.04831195   -1.70979404
 H         -2.00969696    0.16214500   -1.96121204
 H         -1.53162503   -1.51772594   -1.62617099
 O          1.64523005   -2.84612393   -0.42488900
 O          3.23804498   -3.16096711   -1.95826697
 C          3.28122711   -4.51149988    0.02425400
 C          2.70011806   -3.42888594   -0.87187701
 H          3.54709506   -4.07666683    0.99123102
 H          4.16200113   -4.96749783   -0.42644700
 H          2.52326393   -5.27714777    0.20656700
