55
wb97x-d4 ma-def2-tzvp(-f) cpcm(dmso) E: -1285.240900342277, G: -1284.82144334
 C          1.60716605    2.59220600    0.99927098
 C          1.40439296    1.25546706    1.70870996
 O          2.25301003    1.15896595    2.84023499
 C          1.58757699    0.07431400    0.75556803
 O          1.17315805   -1.09417796    1.43541300
 C          0.80129701    0.29734600   -0.54754299
 C          1.04059303    1.69452000   -1.12114096
 C          0.19664200    2.00200510   -2.33853602
 O          0.77102500    3.12899303   -3.00156212
 O          0.77282399    2.68863702   -0.13518000
 O          1.00714004   -0.64824402   -1.51637697
 O          2.96755409    2.69829988    0.68287498
 H          2.09622312    1.74043405   -1.41610897
 H          1.30394900    3.41914105    1.65036297
 H          2.64883494    0.00284800    0.47695300
 H         -0.34617901    0.23770000   -0.20942999
 C          3.33914495    3.99244905    0.20889901
 H          3.14978099    1.36372197    2.54282403
 H          0.18832999    1.12933195   -2.99637508
 H         -0.82848603    2.22379398   -2.02554798
 H          1.27484202   -1.55290794   -1.13733304
 H          1.43325996   -1.87121701    0.89678103
 H          0.19821100    3.36191893   -3.74084806
 H          3.02514291    4.76364994    0.92063600
 H          2.89013791    4.19429398   -0.76726902
 H          4.42467308    3.99644589    0.11898300
 H          0.38167599    1.23980296    2.09044504
 C         -3.23059011   -2.19418907   -0.35542801
 C         -1.77402902   -1.65691698   -0.40422300
 C         -4.07648993   -1.22256804    0.47512600
 C         -4.17817783    0.10550900   -0.28182700
 C         -2.74308705    0.56427902   -0.66148001
 N         -1.80230403   -0.27691200    0.09022100
 H         -3.22779107   -3.18948197    0.09204800
 H         -1.10557699   -2.22367311    0.24145600
 H         -5.07130480   -1.63810396    0.64432597
 H         -4.76926899   -0.01001200   -1.19180596
 H         -2.56264591    1.60425103   -0.39166600
 H         -3.63461590   -2.27768397   -1.36648202
 H         -1.37162697   -1.64873099   -1.41681898
 C         -3.37133694   -0.97359401    1.81253695
 H         -4.65872192    0.86163098    0.34245101
 H         -2.53880191    0.42390001   -1.72250104
 C         -2.04566789   -0.21041900    1.53825998
 H         -3.15849710   -1.92254901    2.30936599
 H         -3.99785304   -0.37581599    2.47659612
 H         -1.19781101   -0.66402698    2.04651189
 H         -2.11561608    0.84227401    1.81192100
 O          3.39190507   -3.05150294   -1.91068804
 O          1.68394601   -2.90177488   -0.47835201
 C          3.39860892   -4.46848202    0.02526400
 C          2.80398607   -3.39436293   -0.87216502
 H          2.68736911   -5.29183292    0.12618899
 H          3.56508899   -4.05504990    1.02328002
 H          4.33899403   -4.84389114   -0.37682101
