55
wb97x-d4 ma-def2-tzvp(-f) cpcm(dmso) E: -1285.241727491697, G: -1284.82141606
 C          1.73360097    2.68581200    0.97820300
 C          1.48583102    1.36343801    1.69064999
 O          2.32823992    1.28104806    2.82748699
 C          1.70195794    0.17858800    0.75740999
 O          1.38688397   -0.97596800    1.50932801
 C          0.86223501    0.35508999   -0.51850802
 C          1.09053195    1.74963295   -1.11196303
 C          0.23885100    2.09997702   -2.31937909
 O         -1.12748802    2.31557703   -1.98808897
 O          0.86906803    2.76974893   -0.14211100
 O          1.06260705   -0.58885998   -1.48970699
 O          3.07874608    2.77239299    0.61781001
 H          2.13829589    1.76645100   -1.43906903
 H          1.45313203    3.52990699    1.61768794
 H          2.75377989    0.15510000    0.44045100
 H         -0.28813601    0.25614500   -0.16256300
 C          3.43486404    4.04753590    0.08554800
 H          2.21682906    0.39269501    3.19029188
 H          0.66180497    2.99405289   -2.78969693
 H          0.27336600    1.28028500   -3.03725410
 H          1.29015994   -1.49826097   -1.09955800
 H          1.58621097   -1.76933599    0.96738499
 H         -1.16024101    3.05834389   -1.37274504
 H          2.95496893    4.21906614   -0.88201100
 H          4.51688004    4.04478407   -0.04095300
 H          3.14769912    4.84564590    0.77903998
 H          0.43302500    1.36489797    2.00066304
 C         -3.95566893    0.17842200    0.86883098
 C         -2.55077600    0.77537400    0.57984501
 C         -4.03115988   -1.21979904    0.24645500
 C         -3.03463507   -2.13100410    0.96891201
 C         -1.63735998   -1.45322204    0.95015103
 N         -1.71599698   -0.30468699    0.03528700
 H         -4.71820307    0.83320600    0.44322401
 H         -2.58938694    1.56562996   -0.16501699
 H         -5.04301405   -1.61880302    0.33766499
 H         -3.33962893   -2.29350495    2.00431395
 H         -0.86258298   -2.12493610    0.58621901
 H         -4.12277603    0.11946100    1.94640505
 H         -2.07179093    1.15166402    1.48320198
 C         -3.62865496   -1.13278198   -1.22875094
 H         -2.98495102   -3.10328388    0.47415799
 H         -1.34782398   -1.07737994    1.92911804
 C         -2.13483095   -0.71148002   -1.31181896
 H         -4.25074100   -0.40064299   -1.74805295
 H         -3.75881290   -2.09804296   -1.72105098
 H         -1.98592699    0.13336501   -1.97958696
 H         -1.49429595   -1.53707898   -1.61866796
 O          1.65038002   -2.84386396   -0.39163899
 O          3.25192904   -3.16196394   -1.91530502
 C          3.28512001   -4.50643301    0.07161000
 C          2.70834494   -3.42697406   -0.83101600
 H          4.17417908   -4.95675707   -0.36842799
 H          2.52966189   -5.27710390    0.24317700
 H          3.53569603   -4.07116413    1.04241300
