55
wb97x-d4 ma-def2-tzvp(-f) cpcm(dmso) E: -1285.242293048985, G: -1284.82139608
 C          1.37221801    2.99093294    0.74890703
 C          1.34761500    1.71744394    1.58438897
 O          2.10132790    1.91919994    2.76799893
 C          1.86557996    0.52176797    0.79502702
 O          1.70628405   -0.60648203    1.63240504
 C          1.11702800    0.41176400   -0.53970599
 C          1.13588595    1.75698996   -1.27063894
 C          0.34679201    1.76797605   -2.56825089
 O          0.61048800    2.93686295   -3.33972001
 O          0.61415601    2.78373003   -0.43046200
 O          1.54482698   -0.58643800   -1.37361801
 O          2.69681597    3.33912802    0.48004401
 H          2.18693399    1.97067106   -1.50698400
 H          0.86174101    3.80591893    1.27379405
 H          2.92650390    0.67727602    0.55531198
 H         -0.02118400    0.18176299   -0.23639600
 C          2.82370591    4.61849880   -0.13862900
 H          2.09197903    1.08249795    3.25019693
 H          0.57756501    0.86342102   -3.13594699
 H         -0.72262001    1.78193104   -2.35123706
 H          1.82166398   -1.42079604   -0.86505699
 H          2.06248689   -1.39660597    1.17631304
 H          1.50985503    2.87264204   -3.68219209
 H          2.40152788    4.61231613   -1.14730799
 H          3.88938594    4.83865499   -0.19106700
 H          2.31964207    5.38456821    0.46101201
 H          0.29702601    1.52965105    1.83725905
 C         -2.79752707   -1.83276296    1.44163704
 C         -1.35776103   -1.32816505    1.15027702
 C         -3.69060493   -1.46526802    0.25322601
 C         -3.01861405   -1.96416903   -1.03139198
 C         -1.71121597   -1.15306401   -1.25050902
 N         -1.44005406   -0.42378601   -0.00625400
 H         -3.17757201   -1.37308002    2.35657191
 H         -0.93840897   -0.77454400    1.98707199
 H         -4.67663288   -1.91959596    0.36450100
 H         -2.78790689   -3.02833605   -0.94695699
 H         -1.81835496   -0.42087999   -2.04997897
 H         -2.77394104   -2.91395807    1.58941901
 H         -0.68458402   -2.13998389    0.88176203
 C         -3.81511807    0.06130400    0.18684000
 H         -3.67331290   -1.82559800   -1.89347601
 H         -0.85891598   -1.80104899   -1.45321202
 C         -2.38830590    0.67477602    0.22425100
 H         -4.38980913    0.44182801    1.03299403
 H         -4.32535887    0.35905901   -0.73170102
 H         -2.15551209    1.11281896    1.19424605
 H         -2.24779510    1.42651200   -0.55052400
 O          2.38275599   -2.63037992   -0.03940400
 O          0.55923700   -3.76036191   -0.66345501
 C          2.07446408   -4.80061388    0.87873501
 C          1.61452699   -3.66055703   -0.01554600
 H          2.21373606   -4.43064308    1.89761305
 H          3.04301095   -5.16654491    0.52882499
 H          1.35434699   -5.61824083    0.87899500
