55
wb97x-d4 ma-def2-tzvp(-f) cpcm(dmso) E: -1285.24671796848, G: -1284.82533514
 C          1.66082096    2.86482906    0.96878999
 C          1.48137903    1.53990901    1.69833100
 O          2.29118204    1.52238500    2.86072707
 C          1.80861795    0.36241299    0.78794199
 O          1.59170604   -0.81108201    1.53098297
 C          0.97407001    0.45661101   -0.49872899
 C          1.14021301    1.84403205   -1.12380397
 C          0.30084199    2.11752796   -2.35874391
 O         -1.08437097    2.25122690   -2.06518006
 O          0.83105099    2.86953712   -0.18141000
 O          1.23285699   -0.50460303   -1.43504596
 O          3.00796509    3.04103303    0.65065902
 H          2.19331193    1.91844702   -1.42595804
 H          1.30036294    3.69915605    1.58054698
 H          2.86038589    0.43015701    0.47685799
 H         -0.17763600    0.31111899   -0.15046100
 C          3.29249310    4.33558702    0.12253700
 H          2.27349997    0.61116999    3.18373799
 H          0.67833000    3.02799892   -2.83640194
 H          0.40588900    1.28839195   -3.05864406
 H          1.25429296   -1.44494998   -1.05670500
 H          2.12990403   -1.55320895    1.14344394
 H         -1.17790997    2.99836206   -1.46153498
 H          2.93351698    5.11438704    0.80457902
 H          2.82916188    4.47233820   -0.85857600
 H          4.37536097    4.40554523    0.02620100
 H          0.42149201    1.47442901    1.97721195
 C         -3.85651207    0.05450400    0.80140603
 C         -2.49077702    0.73181701    0.50414097
 C         -3.82421088   -1.37460494    0.24935099
 C         -2.78631592   -2.17954803    1.03742695
 C         -1.44047403   -1.40528202    1.02306199
 N         -1.56925201   -0.31607899    0.04159200
 H         -4.65360880    0.63305300    0.33094499
 H         -2.56826091    1.47218704   -0.28735399
 H         -4.80933905   -1.83598304    0.33893201
 H         -3.10851312   -2.31987500    2.07091689
 H         -0.60607499   -2.03445911    0.72190702
 H         -4.04059410    0.03686100    1.87775803
 H         -2.06028008    1.19417095    1.39190805
 C         -3.39249206   -1.33155096   -1.21946597
 H         -2.65373898   -3.16617608    0.58790702
 H         -1.21346200   -0.95423901    1.98730898
 C         -1.92538095   -0.82483500   -1.28988397
 H         -4.04506683   -0.66360700   -1.78593099
 H         -3.45211196   -2.32449698   -1.66853499
 H         -1.80718505   -0.01272700   -2.00342107
 H         -1.23027205   -1.62758696   -1.53065705
 O          1.23451102   -3.01041293   -0.85586500
 O          2.94268608   -2.86785698    0.57397598
 C          2.51178598   -4.98408794   -0.44255701
 C          2.20364594   -3.51389503   -0.21749300
 H          3.27329898   -5.05681086   -1.22506201
 H          1.62489200   -5.52250195   -0.77683800
 H          2.91431594   -5.43871880    0.46316800
