55
wb97x-d4 ma-def2-tzvp(-f) cpcm(dmso) E: -1285.241864855618, G: -1284.82126266
 C          1.88141406    2.35976410    1.22518802
 C          1.65090203    0.93141103    1.70025396
 O          2.58656192    0.61896503    2.71788311
 C          1.73613000   -0.06074600    0.54698098
 O          1.46186495   -1.33175802    1.09875000
 C          0.77733999    0.36629501   -0.57638901
 C          1.02170300    1.83644199   -0.93160099
 C          0.08693000    2.42472410   -1.97355998
 O         -1.23585403    2.61105895   -1.48453498
 O          0.92861599    2.66774392    0.22209901
 O          0.81791902   -0.39387199   -1.71484804
 O          3.19341612    2.49184799    0.76846099
 H          2.03806496    1.88031495   -1.34436297
 H          1.68381798    3.07294297    2.03296709
 H          2.74996901   -0.03763400    0.12339000
 H         -0.33261001    0.25450799   -0.11476800
 C          3.54638910    3.84092689    0.46601400
 H          2.47201800   -0.31901899    2.91888404
 H          0.50546098    3.37865710   -2.31182504
 H          0.02518600    1.75013900   -2.82753301
 H          1.09245503   -1.35089600   -1.52929997
 H          1.60357404   -2.01139307    0.40259400
 H         -1.18351400    3.22922897   -0.74525702
 H          4.61403179    3.84636593    0.24934800
 H          3.34206295    4.49086285    1.32406104
 H          2.99525905    4.20680380   -0.40468299
 H          0.63147497    0.89612401    2.10479689
 C         -3.85469890   -0.78112698   -0.97963101
 C         -2.35311699   -0.43534401   -1.17864501
 C         -4.08159304   -1.13056803    0.49434999
 C         -3.85441089    0.12729000    1.33942199
 C         -2.47469902    0.73328900    0.96160001
 N         -1.76210499   -0.26878500    0.15558000
 H         -4.11706018   -1.62270498   -1.62302804
 H         -1.81234598   -1.23817897   -1.67749703
 H         -5.09562302   -1.50631499    0.64179599
 H         -4.63369322    0.86755598    1.14982700
 H         -1.87086594    0.95763302    1.84039998
 H         -4.47496223    0.07117500   -1.26560199
 H         -2.21693110    0.49378201   -1.72657001
 C         -3.05661798   -2.19038796    0.90853101
 H         -3.87578297   -0.12448600    2.40193701
 H         -2.57674503    1.62855399    0.35379201
 C         -1.64044905   -1.55564296    0.85629600
 H         -3.10742092   -3.04822397    0.23439001
 H         -3.25261593   -2.54451394    1.92221606
 H         -0.93559802   -2.17571592    0.30657500
 H         -1.23897302   -1.35657406    1.84786701
 O          3.03034806   -2.79459810   -2.82234001
 O          1.57842195   -2.78890896   -1.12532997
 C          3.44683909   -4.24943876   -0.96075600
 C          2.64534402   -3.19957900   -1.71392798
 H          4.33102512   -4.54999304   -1.52190399
 H          2.81657505   -5.12198305   -0.77224702
 H          3.74717307   -3.84603596    0.00988700
