55
wb97x-d4 ma-def2-tzvp(-f) cpcm(dmso) E: -1285.240946493645, G: -1284.82125756
 C          1.68542302    2.60932803    1.04175699
 C          1.42723596    1.25956500    1.69671297
 O          2.28694010    1.10408998    2.81310511
 C          1.59912503    0.11648300    0.70438701
 O          1.20688105   -1.06636000    1.37719703
 C          0.78346097    0.38186601   -0.56908900
 C          0.99281198    1.80844402   -1.08625197
 C          0.06790000    2.17579007   -2.23337698
 O          0.45540199    3.39258003   -2.86464810
 O          0.79234803    2.76206899   -0.04738800
 O          0.98444200   -0.51578599   -1.58409905
 O          3.02368093    2.68955588    0.65276003
 H          2.03000593    1.86016095   -1.44229496
 H          1.43731201    3.42548990    1.72939706
 H          2.65409398    0.05639000    0.40531099
 H         -0.36008000    0.28528199   -0.21217600
 C          3.38572407    3.97900009    0.16016901
 H          2.13989210    0.21360600    3.15706706
 H          0.04053700    1.35230803   -2.95141292
 H         -0.93946201    2.34141707   -1.84939206
 H          1.26085806   -1.43181503   -1.24148798
 H          1.45742500   -1.83428097    0.81826401
 H          1.27433205    3.23209095   -3.34823799
 H          3.12696099    4.75406504    0.89006799
 H          2.88486099    4.19406414   -0.78784901
 H          4.46420479    3.96613407    0.00680100
 H          0.38253501    1.27560401    2.02819896
 C         -3.15929008   -2.24084806   -0.35504800
 C         -1.72162604   -1.65645695   -0.40890700
 C         -4.03601599   -1.29371202    0.47115901
 C         -4.17907810    0.02644100   -0.29207999
 C         -2.75866294    0.53410500   -0.66384399
 N         -1.79078603   -0.27751601    0.08658500
 H         -3.12320709   -3.23333001    0.09733600
 H         -1.03278303   -2.20155406    0.23356800
 H         -5.01730490   -1.73994899    0.64115798
 H         -4.75993299   -0.11391600   -1.20518994
 H         -2.61613703    1.57790601   -0.38680801
 H         -3.56178808   -2.34292889   -1.36500394
 H         -1.32407105   -1.63465905   -1.42319298
 C         -3.34137893   -1.01715195    1.80868900
 H         -4.68980503    0.76797801    0.32558101
 H         -2.54558706    0.40688899   -1.72487605
 C         -2.03552699   -0.22047400    1.53496504
 H         -3.10468292   -1.95709896    2.31181693
 H         -3.98651290   -0.43299600    2.46700811
 H         -1.17635703   -0.65434402    2.04159188
 H         -2.13058305    0.82946002    1.81163096
 O          1.66917503   -2.79314089   -0.60015202
 O          3.38122511   -2.98523688   -2.02255392
 C          3.33876109   -4.40336323   -0.08722200
 C          2.77987790   -3.31200290   -0.98681998
 H          2.64027905   -5.24399424   -0.06879400
 H          3.42620397   -4.02782393    0.93507898
 H          4.31074286   -4.74742079   -0.43916899
