55
wb97x-d4 ma-def2-tzvp(-f) cpcm(dmso) E: -1285.242117618866, G: -1284.8212314500001
 C          1.37336695    2.93469191    0.79473603
 C          1.38941395    1.64302897    1.61173999
 O          2.12177110    1.83088899    2.81121397
 C          1.91650701    0.45586199    0.80265898
 O          1.72824705   -0.70100403    1.58734596
 C          1.21494699    0.39381000   -0.56681502
 C          1.30109704    1.75719094   -1.25417900
 C          0.70897502    1.83905494   -2.64191294
 O         -0.68796700    1.56449902   -2.60541797
 O          0.69995898    2.75528908   -0.43269601
 O          1.65394199   -0.58439201   -1.41750300
 O          2.70654893    3.33229589    0.62555599
 H          2.37103796    1.97520196   -1.37023699
 H          0.81021100    3.71228194    1.32117295
 H          2.98574209    0.61236799    0.59381300
 H          0.05762300    0.16380700   -0.30144501
 C          2.84427190    4.65734911    0.11408700
 H          2.96557403    2.23476505    2.56663489
 H          0.89251298    2.84886289   -3.02502608
 H          1.23142803    1.12179005   -3.28083611
 H          1.88277996   -1.44690096   -0.93978399
 H          2.05360603   -1.48481297    1.09597600
 H         -1.01936996    1.58739603   -3.50999498
 H          3.90728688    4.89443779    0.13337800
 H          2.29707193    5.36718321    0.74352199
 H          2.47352409    4.72020483   -0.91262698
 H          0.36131200    1.42703998    1.91030395
 C         -2.78040290   -1.71238399    1.44718099
 C         -1.32356596   -1.25026095    1.17649996
 C         -3.62027788   -1.43473101    0.19726200
 C         -2.90456390   -2.04289103   -1.01433301
 C         -1.57533801   -1.27187705   -1.24150300
 N         -1.34064400   -0.44127101   -0.05332900
 H         -3.19004989   -1.17368603    2.30451012
 H         -0.92960399   -0.64229298    1.98695195
 H         -4.61633587   -1.86767602    0.30556700
 H         -2.69942689   -3.10129189   -0.83835900
 H         -1.62671900   -0.60457098   -2.09813404
 H         -2.77897310   -2.77751899    1.68587601
 H         -0.65234900   -2.08997393    1.00827801
 C         -3.71833611    0.08260900    0.00190600
 H         -3.52265096   -1.96122205   -1.91028297
 H         -0.72807801   -1.94860303   -1.35390699
 C         -2.28627205    0.68116701    0.04655000
 H         -4.32183123    0.53680497    0.79001600
 H         -4.18905497    0.30925801   -0.95746100
 H         -2.08724093    1.19108701    0.98910499
 H         -2.09466600    1.35945404   -0.78036797
 O          0.70858401   -3.91984510   -1.07321095
 O          2.32181907   -2.71030402   -0.11186700
 C          1.53932297   -4.62155390    1.06531596
 C          1.50294697   -3.69995809   -0.14390101
 H          2.55757403   -4.98443794    1.22208405
 H          0.86059099   -5.46486282    0.94193500
 H          1.25411999   -4.05136299    1.95395195
