55
wb97x-d4 ma-def2-tzvp(-f) cpcm(dmso) E: -1285.241732559349, G: -1284.8211680900001
 C          1.85962403    2.44956994    1.11733103
 C          1.51905704    1.14999497    1.83330905
 O          2.34666610    1.01403296    2.97546101
 C          1.65834200   -0.04937300    0.90380502
 O          1.26144505   -1.17835104    1.65597200
 C          0.83899897    0.17666900   -0.37814999
 C          1.15925002    1.55270898   -0.97286499
 C          0.32590500    1.95947397   -2.17619610
 O         -1.01446295    2.28386593   -1.82927501
 O          1.00575197    2.58729696   -0.00578700
 O          0.98626900   -0.78303099   -1.34390402
 O          3.20819497    2.44185400    0.75973099
 H          2.20510602    1.49868798   -1.30158603
 H          1.63589799    3.31386304    1.75208294
 H          2.70786595   -0.14515600    0.59244800
 H         -0.32015100    0.14922500   -0.03275500
 C          3.64914894    3.68519092    0.21508700
 H          2.18107796    0.13221601    3.33368492
 H          0.81155002    2.81493807   -2.65777111
 H          0.28763199    1.13498795   -2.88851309
 H          1.20444906   -1.69016695   -0.94755799
 H          1.43652701   -1.98503304    1.12574005
 H         -0.97889501    3.01484108   -1.19988298
 H          3.41840696    4.50750780    0.90133601
 H          3.17986894    3.87989998   -0.75325102
 H          4.72816992    3.60787606    0.08681600
 H          0.46746001    1.22500706    2.13733292
 C         -3.77396894   -0.93713701   -1.08899295
 C         -2.25425005   -0.62786198   -1.19458401
 C         -4.13904905   -1.09090102    0.39061299
 C         -3.94894505    0.25719601    1.09412098
 C         -2.52012897    0.78182101    0.78225398
 N         -1.77367306   -0.32106099    0.15929100
 H         -3.99351501   -1.85477805   -1.63741195
 H         -1.68609297   -1.48323500   -1.55717897
 H         -5.17302608   -1.42579103    0.49093500
 H         -4.68269014    0.98469198    0.74248201
 H         -1.98974097    1.08347702    1.68477404
 H         -4.35122299   -0.12663200   -1.53911495
 H         -2.05743790    0.23568100   -1.82439399
 C         -3.18756008   -2.11074495    1.02258205
 H         -4.07793283    0.14053600    2.17224312
 H         -2.53301096    1.60890901    0.07662000
 C         -1.75072706   -1.52105796    1.00941002
 H         -3.21383190   -3.04862905    0.46381500
 H         -3.47712803   -2.32251191    2.05345201
 H         -1.02685702   -2.21854997    0.59182900
 H         -1.41841698   -1.21883595    2.00004506
 O          3.10371590   -4.60467720    0.09967100
 O          1.54992604   -3.04377103   -0.25023401
 C          3.36400008   -3.16097212   -1.79562795
 C          2.63723898   -3.65903902   -0.55456698
 H          3.72417903   -2.14466596   -1.61310899
 H          2.67274404   -3.11620092   -2.64031911
 H          4.20824909   -3.80385399   -2.04124093
