55
wb97x-d4 ma-def2-tzvp(-f) cpcm(dmso) E: -1285.241862818248, G: -1284.82104735
 C          1.76529706    2.34491301    1.13417995
 C          1.52731895    0.97826803    1.77679706
 O          2.36721992    0.80986202    2.90595388
 C          1.69447899   -0.14898300    0.75825697
 O          1.35618901   -1.36004806    1.39594698
 C          0.84228700    0.14746900   -0.48711801
 C          1.14544106    1.54950202   -1.01520097
 C          0.34303701    1.98352206   -2.22939610
 O         -1.02977395    2.21536589   -1.93938899
 O          0.93873000    2.52392101    0.00279300
 O          0.95740098   -0.76250601   -1.50373399
 O          3.12767196    2.42537904    0.82002598
 H          2.20175195    1.54006195   -1.31570005
 H          1.48568106    3.14792895    1.82423699
 H          2.74038410   -0.17173199    0.41685399
 H         -0.30669799    0.11244900   -0.10172200
 C          3.53764892    3.72477102    0.39518601
 H          3.27277803    0.99064600    2.61993599
 H          0.80346298    2.88801193   -2.64029694
 H          0.38669899    1.19871795   -2.98457003
 H          1.08014405   -1.70617700   -1.16301799
 H          1.41608405   -2.09112000    0.74714202
 H         -1.07895100    2.99691296   -1.37641203
 H          4.62209988    3.69679594    0.29645300
 H          3.25401592    4.47690010    1.13922000
 H          3.08921599    3.97944999   -0.56879801
 H          0.50038099    0.95645499    2.15001392
 C         -3.69169402   -1.28885901   -0.95657098
 C         -2.26882195   -0.69652098   -1.15241694
 C         -4.12489080   -1.05183005    0.49409300
 C         -3.98105693    0.43857199    0.81870502
 C         -2.47809696    0.82630402    0.74483901
 N         -1.75701106   -0.31904399    0.17078900
 H         -3.68694305   -2.35815907   -1.17760706
 H         -1.57969606   -1.42226398   -1.58343697
 H         -5.16006184   -1.36823595    0.63411200
 H         -4.55341101    1.03632700    0.10614500
 H         -2.05596304    1.01851201    1.73072696
 H         -4.38066721   -0.80273801   -1.64959705
 H         -2.27711201    0.20104900   -1.76618004
 C         -3.19766212   -1.84629405    1.41732001
 H         -4.35940123    0.65245903    1.81991899
 H         -2.31025505    1.68834400    0.10528700
 C         -1.72759104   -1.46294606    1.09591496
 H         -3.33191395   -2.91919398    1.26870894
 H         -3.42028189   -1.61849904    2.46192288
 H         -1.19019103   -2.27165198    0.60338801
 H         -1.17663503   -1.16441405    1.98404706
 O          1.22134495   -3.18532491   -0.63047701
 O          2.32800293   -5.09968185   -0.91707498
 C          3.49393511   -3.05304909   -1.35797799
 C          2.27146697   -3.86047697   -0.94149297
 H          3.74642205   -2.33758211   -0.57110000
 H          3.26135397   -2.47919512   -2.25867200
 H          4.34684086   -3.70234203   -1.55095696
