55
wb97x-d4 ma-def2-tzvp(-f) cpcm(dmso) E: -1285.241734437765, G: -1284.8210116
 C          1.69485795    2.81324100    0.60643500
 C          1.35963297    1.64565694    1.52293396
 O          2.11111808    1.75775504    2.71916199
 C          1.61406505    0.30970901    0.83631098
 O          1.21865702   -0.68673003    1.75640905
 C          0.87363797    0.25888699   -0.51217300
 C          1.16179502    1.52579403   -1.32587302
 C          0.37417999    1.67053699   -2.61682105
 O         -0.99409997    1.98431396   -2.38832688
 O          0.90967202    2.70642400   -0.56860101
 O          1.13385606   -0.84268397   -1.28350103
 O          3.06293106    2.81261992    0.33286500
 H          2.22468805    1.47215903   -1.59407103
 H          1.39592004    3.76314998    1.06275499
 H          2.68524289    0.21869400    0.60916799
 H         -0.30430299    0.21858200   -0.23320000
 C          3.49063897    3.97451997   -0.37695399
 H          1.94937694    0.94921601    3.22269607
 H          0.84710699    2.45097399   -3.22258306
 H          0.40553099    0.73251402   -3.17149091
 H          1.35064602   -1.65878403   -0.72227699
 H          1.47737503   -1.56346500    1.39540505
 H         -1.01790404    2.80474591   -1.88034201
 H          3.18251491    4.88212013    0.15380600
 H          3.08007908    3.99072003   -1.39038897
 H          4.57805777    3.93134499   -0.42558599
 H          0.28684601    1.71677101    1.74342203
 C         -3.10350394   -2.04455304    0.98763901
 C         -1.71169102   -1.35589004    0.98009402
 C         -4.06264687   -1.21701396    0.12667300
 C         -3.58529711   -1.27842700   -1.32734394
 C         -2.08567691   -0.87602901   -1.37300599
 N         -1.73848403   -0.31555200   -0.05985200
 H         -3.46422291   -2.11112094    2.01570797
 H         -1.48573995   -0.87089401    1.92719698
 H         -5.07817793   -1.60864699    0.20801900
 H         -3.70049596   -2.28633499   -1.72974801
 H         -1.89018595   -0.11729000   -2.12614894
 H         -3.02155495   -3.05902910    0.59165198
 H         -0.91240603   -2.05442405    0.73981398
 C         -4.01704693    0.23842900    0.60421598
 H         -4.17244482   -0.59687501   -1.94675195
 H         -1.43762505   -1.73481703   -1.54166806
 C         -2.60329199    0.81340897    0.31329000
 H         -4.22898817    0.28900099    1.67441797
 H         -4.76309299    0.84079099    0.08272300
 H         -2.17013192    1.29800797    1.18778598
 H         -2.60974097    1.51100600   -0.52067798
 O          3.34810710   -3.51569510   -1.08219898
 O          1.70240295   -2.82838607    0.26015300
 C          3.36660409   -4.23644495    1.20716298
 C          2.78522491   -3.47859311    0.02379300
 H          4.26618099   -4.78225613    0.92500800
 H          2.61961699   -4.93233919    1.59653103
 H          3.60219002   -3.52881908    2.00634098
