55
wb97x-d4 ma-def2-tzvp(-f) cpcm(dmso) E: -1285.241808512695, G: -1284.82099089
 C          1.61672795    2.65441203    1.08096898
 C          1.44626296    1.29620099    1.75755894
 O          2.26998591    1.21495295    2.90876389
 C          1.70296800    0.14516900    0.78500599
 O          1.38716495   -1.05244195    1.45995295
 C          0.89343601    0.35364500   -0.50791299
 C          1.10682297    1.76490200   -1.05967796
 C          0.30148500    2.12112093   -2.29751992
 O         -1.08191502    2.30844688   -2.02549696
 O          0.80857998    2.74756002   -0.07281700
 O          1.12981701   -0.55850500   -1.50105500
 O          2.97913909    2.81051397    0.79629099
 H          2.16738009    1.82320297   -1.33803105
 H          1.27169001    3.45821691    1.73979199
 H          2.76276493    0.15473300    0.48925099
 H         -0.26079801    0.23006500   -0.17536300
 C          3.32017303    4.12330103    0.35236901
 H          3.16486096    1.45981097    2.63717103
 H          0.72840202    3.02969599   -2.73510695
 H          0.38308600    1.31389403   -3.02539992
 H          1.32647502   -1.48827004   -1.14182103
 H          1.54993999   -1.80959797    0.86020303
 H         -1.15874898    3.07084489   -1.43933201
 H          2.96556497    4.87259102    1.06831098
 H          2.88831806    4.32677794   -0.63125098
 H          4.40685177    4.16270018    0.28840601
 H          0.41363400    1.22425699    2.10889292
 C         -3.99036598    0.24100900    0.61550200
 C         -2.52438688    0.75674301    0.55838799
 C         -4.01466417   -1.23134303    0.19544899
 C         -3.07258797   -2.02015090    1.10773504
 C         -1.62714303   -1.47841704    0.92513502
 N         -1.69443905   -0.32651499    0.01400900
 H         -4.61604023    0.83512598   -0.05361100
 H         -2.42032290    1.61839998   -0.09500500
 H         -5.02979994   -1.62528503    0.27288800
 H         -3.37703609   -1.91040206    2.15055394
 H         -0.96593100   -2.21726489    0.47572401
 H         -4.37703514    0.35412601    1.62995195
 H         -2.13706207    1.00205100    1.54672897
 C         -3.51623201   -1.34922099   -1.24816203
 H         -3.09817004   -3.08232498    0.85745502
 H         -1.19202006   -1.14129698    1.86234796
 C         -2.09684491   -0.72147501   -1.34063601
 H         -4.18899918   -0.82471597   -1.92917097
 H         -3.47936106   -2.39803791   -1.54900098
 H         -2.08274388    0.17195401   -1.96017694
 H         -1.35840702   -1.43115401   -1.71198499
 O          1.59630597   -2.89117789   -0.50820303
 O          3.44370794   -3.02941608   -1.75904906
 C          3.09639692   -4.67702579   -0.05095400
 C          2.70832109   -3.44102693   -0.84720701
 H          4.06635618   -5.06138420   -0.36465201
 H          2.33516002   -5.44891214   -0.18969700
 H          3.12327695   -4.43105793    1.01349103
