55
wb97x-d4 ma-def2-tzvp(-f) cpcm(dmso) E: -1285.24132532324, G: -1284.8209769900002
 C          1.54827404    2.63607311    0.69805402
 C          1.23450196    1.49579203    1.66708004
 O          1.97267199    1.64932501    2.86689091
 C          1.44980502    0.11755400    1.03912902
 O          0.89191699   -0.84340000    1.91423905
 C          0.82478601    0.06274100   -0.36241600
 C          1.23299801    1.26910102   -1.20387805
 C          0.60150701    1.31623399   -2.59087610
 O          1.14378095    0.32828701   -3.45866203
 O          0.86538500    2.46760011   -0.52865100
 O          1.03700495   -1.09831500   -1.05979204
 O          2.93810105    2.67689300    0.53643203
 H          2.32224488    1.22605801   -1.32702696
 H          1.18353605    3.58664608    1.10094595
 H          2.52900410   -0.05339600    0.91484600
 H         -0.36072600    0.14360900   -0.16246800
 C          3.39833903    3.85166001   -0.13191500
 H          2.89504004    1.79753995    2.61766601
 H         -0.48612401    1.21901906   -2.51809001
 H          0.82583898    2.28970909   -3.03071904
 H          1.25258994   -1.90204704   -0.45787299
 H          1.17204905   -1.73034203    1.60819602
 H          1.08860600   -0.51649803   -2.98964500
 H          4.48686123    3.82260108   -0.10709600
 H          3.04148698    4.74827814    0.38592401
 H          3.05564594    3.86978602   -1.16999996
 H          0.18238300    1.58618605    1.94303095
 C         -3.35569096   -2.13521600    0.05218200
 C         -1.86756897   -1.69004500    0.04135500
 C         -4.21877623   -0.92799097    0.43531200
 C         -4.13660812    0.10759900   -0.69028902
 C         -2.63845491    0.37040100   -1.00394797
 N         -1.84989297   -0.22348900    0.08529400
 H         -3.47874498   -2.94659305    0.77164203
 H         -1.32389903   -2.05053592    0.91262102
 H         -5.25380421   -1.23778200    0.58913600
 H         -4.63200188   -0.25700000   -1.59173405
 H         -2.41169596    1.43518305   -1.04892302
 H         -3.64456511   -2.50789595   -0.93276203
 H         -1.34949803   -2.01115203   -0.86188602
 C         -3.65505695   -0.30374601    1.71582901
 H         -4.62322807    1.03653598   -0.38574800
 H         -2.32886004   -0.10697100   -1.93325400
 C         -2.25517511    0.29262599    1.40130603
 H         -3.57014394   -1.05971706    2.49932504
 H         -4.30911207    0.49046901    2.07994390
 H         -1.50978696   -0.01733200    2.13049603
 H         -2.27560306    1.38057005    1.33759403
 O          1.56370103   -3.03510499    0.48746201
 O          3.13206196   -4.41732502    1.26063597
 C          3.58430409   -3.22970605   -0.77030700
 C          2.71665096   -3.60499001    0.42170101
 H          3.83667588   -2.16753292   -0.70988601
 H          3.02729607   -3.38095307   -1.69780898
 H          4.49996996   -3.81900501   -0.78861302
