55
wb97x-d4 ma-def2-tzvp(-f) cpcm(dmso) E: -1285.241880840391, G: -1284.8209335800002
 C          1.56627500    2.86035204    0.62135500
 C          1.34572601    1.67367005    1.55543399
 O          2.09637690    1.84312105    2.74630904
 C          1.65220499    0.34218699    0.87037897
 O          1.27971601   -0.67996699    1.76732504
 C          0.93536198    0.26392201   -0.49323499
 C          1.20847404    1.52744305   -1.31103301
 C          0.49653700    1.61666000   -2.65027308
 O         -0.89913201    1.85472202   -2.51680398
 O          0.84649402    2.69594312   -0.58048397
 O          1.23562205   -0.83643800   -1.25115299
 O          2.94559789    2.97515988    0.40862799
 H          2.28723192    1.53113997   -1.51391304
 H          1.17313302    3.77859402    1.06999099
 H          2.72914290    0.29108399    0.64994103
 H         -0.24520899    0.20051301   -0.23102100
 C          3.32269192    4.19264889   -0.23428300
 H          3.00323391    2.05106711    2.48355603
 H          0.96430397    2.41637206   -3.23443389
 H          0.61582398    0.67672497   -3.18908906
 H          1.35153902   -1.67462397   -0.69227600
 H          1.47454000   -1.55178404    1.36296296
 H         -1.00435603    2.69407606   -2.05231810
 H          2.93287301    5.05320215    0.31987399
 H          2.95117593    4.22281599   -1.26214600
 H          4.41152906    4.22276688   -0.23895501
 H          0.29299900    1.67096901    1.84934103
 C         -3.05927992   -2.02318501    1.03473794
 C         -1.66910505   -1.33035696    1.02633500
 C         -3.99882293   -1.24474895    0.10913900
 C         -3.48461199   -1.37332702   -1.32809901
 C         -1.98595202   -0.96526498   -1.35580897
 N         -1.67540300   -0.34077099   -0.06282200
 H         -3.44611311   -2.03853703    2.05531001
 H         -1.46695006   -0.79933298    1.95415199
 H         -5.01448107   -1.63748598    0.18325800
 H         -3.58525991   -2.40013695   -1.68397295
 H         -1.77326596   -0.24286200   -2.13965893
 H         -2.96424603   -3.05643296    0.69386500
 H         -0.86302000   -2.03639197    0.83793002
 C         -3.97232103    0.23231900    0.51605397
 H         -4.05915213   -0.72569001   -1.99398303
 H         -1.33063602   -1.82819605   -1.46590102
 C         -2.55335593    0.80037999    0.23553801
 H         -4.21335220    0.33363199    1.57641304
 H         -4.70650911    0.80425799   -0.05416600
 H         -2.14410090    1.32603800    1.09766400
 H         -2.54138589    1.45974398   -0.62905300
 O          1.52854300   -2.89732003    0.27121100
 O          3.16900897   -3.68980002   -1.02030599
 C          2.99822688   -4.49894094    1.23253000
 C          2.55416203   -3.64166999    0.05737000
 H          3.28732705   -3.84759212    2.06158090
 H          3.83818412   -5.13775682    0.96195602
 H          2.16196394   -5.11291695    1.57504797
