55
wb97x-d4 ma-def2-tzvp(-f) cpcm(dmso) E: -1285.241846907282, G: -1284.8209103200002
 C          1.59146500    2.77589512    0.66659498
 C          1.34919298    1.57494104    1.57694495
 O          2.11461306    1.69849002    2.76396799
 C          1.61680305    0.25289401    0.85825002
 O          1.22600901   -0.78433102    1.72921598
 C          0.88823497    0.22328100   -0.50001198
 C          1.17506397    1.50113499   -1.29178596
 C          0.44707200    1.63795197   -2.61852908
 O         -0.93810999    1.91834104   -2.46009803
 O          0.85031098    2.65896392   -0.52825302
 O          1.15765703   -0.86636698   -1.28438497
 O          2.97039509    2.85616207    0.43605700
 H          2.25052404    1.48582697   -1.51083302
 H          1.23128104    3.69476104    1.14088702
 H          2.69098902    0.18149599    0.63030899
 H         -0.29021901    0.18141100   -0.22895899
 C          3.37139893    4.07303905   -0.19340600
 H          3.02578998    1.88142896    2.49763393
 H          0.93142802    2.43317008   -3.19521189
 H          0.52888900    0.70498198   -3.17617893
 H          1.36012006   -1.69999504   -0.74347001
 H          1.46597898   -1.64345503    1.32036901
 H         -1.00882804    2.75427008   -1.98310697
 H          4.46044111    4.07319689   -0.21463101
 H          3.01391792    4.93502378    0.37994000
 H          2.98546505    4.12992001   -1.21483099
 H          0.29966801    1.59270597    1.88145995
 C         -3.17008209   -1.95132601    1.07031405
 C         -1.74161899   -1.34080005    1.00451696
 C         -4.08431482   -1.16554999    0.12665901
 C         -3.57387900   -1.33446896   -1.30751097
 C         -2.08355308   -0.89356399   -1.36274195
 N         -1.74068105   -0.32074001   -0.05460600
 H         -3.53948212   -1.89622402    2.09594893
 H         -1.45663798   -0.85500801    1.93466604
 H         -5.10954905   -1.53227103    0.20471901
 H         -3.65784597   -2.37597990   -1.62291396
 H         -1.91070998   -0.12961200   -2.11627007
 H         -3.13936400   -3.00289893    0.77809298
 H         -0.99063200   -2.08635092    0.75103098
 C         -4.02785301    0.31728899    0.50678098
 H         -4.16521502   -0.72434002   -1.99342203
 H         -1.41407800   -1.73481596   -1.53637195
 C         -2.57707906    0.83676398    0.29231200
 H         -4.31959820    0.44944400    1.55058801
 H         -4.71440077    0.89737898   -0.11253500
 H         -2.16635704    1.28904998    1.19435894
 H         -2.51539302    1.54736495   -0.52816701
 O          1.67771304   -2.92361498    0.18129800
 O          3.41367197   -3.49920893   -1.10049403
 C          3.28007793   -4.41157579    1.11408699
 C          2.77420211   -3.55640602   -0.03765200
 H          2.47968793   -5.06117487    1.47467399
 H          3.56830692   -3.75553012    1.94024599
 H          4.13910913   -5.01097298    0.81445801
