55
wb97x-d4 ma-def2-tzvp(-f) cpcm(dmso) E: -1285.24167556197, G: -1284.8208764800002
 C          1.73067105    2.81767797    0.58638901
 C          1.41317403    1.64498496    1.50266898
 O          2.19190693    1.74712598    2.68242693
 C          1.64818203    0.31284001    0.80171603
 O          1.27301502   -0.68687099    1.72635806
 C          0.87534201    0.27277201   -0.52925998
 C          1.14822698    1.54411602   -1.34074795
 C          0.33258200    1.69939005   -2.61286211
 O         -1.03028595    2.01154709   -2.35190892
 O          0.91751897    2.72085595   -0.57053697
 O          1.11426497   -0.82327199   -1.31462300
 O          3.09184289    2.81404090    0.28044900
 H          2.20461392    1.48918605   -1.63344204
 H          1.44575298    3.76543403    1.05584800
 H          2.71317101    0.22086000    0.54737502
 H         -0.29706299    0.23126601   -0.22062300
 C          3.50770807    3.98069310   -0.42879701
 H          2.03993392    0.93537199    3.18386698
 H          0.79251200    2.48473001   -3.22226095
 H          0.35136300    0.76605397   -3.17579699
 H          1.30972195   -1.65214705   -0.76386303
 H          1.49448204   -1.56561506    1.34604502
 H         -1.04280698    2.82927608   -1.83917201
 H          4.59216213    3.92618489   -0.51613301
 H          3.22865295    4.88429308    0.12437300
 H          3.06230688    4.01494789   -1.42690098
 H          0.34585899    1.71720302    1.74826396
 C         -3.06730509   -2.04223394    1.04559898
 C         -1.67629600   -1.35153496    1.01374698
 C         -4.04233885   -1.21527696    0.20215100
 C         -3.58975005   -1.27369905   -1.25987601
 C         -2.09307909   -0.86221999   -1.33130801
 N         -1.72380400   -0.30676699   -0.02173900
 H         -3.41010690   -2.11007500    2.07968807
 H         -1.43207800   -0.87023401    1.95818496
 H         -5.05542994   -1.60959101    0.29965201
 H         -3.70632601   -2.28246808   -1.65959406
 H         -1.91599405   -0.09778700   -2.08332491
 H         -2.99127102   -3.05639005    0.64766902
 H         -0.88126701   -2.04834008    0.75527501
 C         -3.99327898    0.23951501    0.68157101
 H         -4.19157791   -0.59591699   -1.86918199
 H         -1.44345701   -1.71600902   -1.51790202
 C         -2.58455300    0.81857997    0.37168601
 H         -4.19067287    0.28780001    1.75461996
 H         -4.74816322    0.84064603    0.17158300
 H         -2.13786888    1.29848301    1.24201405
 H         -2.60489392    1.52147603   -0.45750299
 O          3.22511506   -3.57721996   -1.17315495
 O          1.63096201   -2.83876300    0.20436101
 C          3.27219892   -4.29664278    1.11607504
 C          2.68816304   -3.52232790   -0.05524000
 H          3.54172397   -3.59684706    1.91132796
 H          4.15152788   -4.86537218    0.81604999
 H          2.51500702   -4.97372580    1.51871896
