55
wb97x-d4 ma-def2-tzvp(-f) cpcm(dmso) E: -1285.246494951088, G: -1284.8252598000001
 C          1.58169603    2.90899301    0.61326897
 C          1.33207798    1.70415998    1.51182199
 O          2.06129694    1.85001898    2.71747708
 C          1.69939899    0.40498900    0.80534601
 O          1.40733194   -0.65400100    1.68221903
 C          0.95254397    0.31884801   -0.53206402
 C          1.18398798    1.59858704   -1.33991694
 C          0.43423101    1.69215906   -2.65723395
 O         -0.96267402    1.89697301   -2.48547101
 O          0.83186001    2.75341797   -0.58028501
 O          1.25227904   -0.77266198   -1.29911697
 O          2.95006990    3.02775002    0.36677700
 H          2.25635695    1.61824799   -1.57504106
 H          1.19524598    3.82547092    1.07251096
 H          2.77128601    0.41808501    0.56440300
 H         -0.21685100    0.24577200   -0.23980200
 C          3.29325604    4.23267889   -0.31593400
 H          1.99188006    1.00066400    3.17448807
 H          0.86858100    2.50867105   -3.24394107
 H          0.56040502    0.76152498   -3.21077704
 H          1.39262903   -1.62369299   -0.77261698
 H          2.04527402   -1.40333700    1.51562798
 H         -1.07464397    2.75394511   -2.05660391
 H          2.89757895    4.23541594   -1.33541906
 H          4.38130999    4.27748680   -0.34795901
 H          2.90598011    5.10291910    0.22550599
 H          0.25500900    1.68745399    1.72408199
 C         -3.05665493   -1.69109201    1.40447998
 C         -1.60203505   -1.22836602    1.11864805
 C         -3.95120096   -1.22940195    0.25130901
 C         -3.33051205   -1.70583105   -1.06725597
 C         -1.98347700   -0.96119702   -1.27358401
 N         -1.65187597   -0.28882301   -0.01152700
 H         -3.40518999   -1.26252306    2.34667802
 H         -1.15940297   -0.71391600    1.96767795
 H         -4.95688915   -1.63793504    0.36478701
 H         -3.16368389   -2.78468895   -1.03520095
 H         -2.04832506   -0.19447900   -2.04215288
 H         -3.07709289   -2.77827001    1.49941194
 H         -0.95365399   -2.05492401    0.83249402
 C         -3.99898005    0.30295300    0.25220400
 H         -3.99119711   -1.48992395   -1.90881598
 H         -1.17032802   -1.64524806   -1.51524198
 C         -2.54284692    0.84600800    0.26667500
 H         -4.52924824    0.67329198    1.13138700
 H         -4.52214003    0.66408700   -0.63600302
 H         -2.26585889    1.24777305    1.24099398
 H         -2.38168693    1.60280704   -0.49622300
 O          1.64617801   -3.15404701   -0.38508201
 O          3.02736497   -2.67433691    1.30352795
 C          3.00075698   -4.91492414    0.47725001
 C          2.53131390   -3.47015691    0.45956701
 H          2.27427006   -5.50345182    1.04593098
 H          3.97318006   -5.00508595    0.96161997
 H          3.04181004   -5.31884480   -0.53489602
