55
wb97x-d4 ma-def2-tzvp(-f) cpcm(dmso) E: -1285.242085935314, G: -1284.82081395
 C          1.35959005    2.98387790    0.74379301
 C          1.34846199    1.70848894    1.57671702
 O          2.10448194    1.91416001    2.75817609
 C          1.87258196    0.51704299    0.78478998
 O          1.72195601   -0.61227399    1.62191904
 C          1.12575603    0.40317899   -0.55178899
 C          1.14068699    1.75121701   -1.27789700
 C          0.36466900    1.76450503   -2.58343792
 O          0.63170803    2.93801498   -3.34682703
 O          0.60530400    2.77025008   -0.43702799
 O          1.56149197   -0.59168601   -1.38533700
 O          2.68030596    3.34784508    0.47729799
 H          2.19237900    1.97303402   -1.50379002
 H          0.83905399    3.79185605    1.26962996
 H          2.93219995    0.67984700    0.54386002
 H         -0.01347500    0.16595501   -0.25368899
 C          2.79316902    4.63125515   -0.13580900
 H          2.09971404    1.07768703    3.24084306
 H          0.60537201    0.86364299   -3.15288496
 H         -0.70708102    1.77332795   -2.37825799
 H          1.83369601   -1.42723095   -0.87676001
 H          2.08570290   -1.39966094    1.16694999
 H          1.53558195    2.88005805   -3.67841411
 H          3.85652304    4.86188507   -0.19025700
 H          2.28358197    5.38956785    0.46899900
 H          2.36806107    4.62566805   -1.14323902
 H          0.30070001    1.51242006    1.83376896
 C         -2.75140810   -1.93984199    1.36941803
 C         -1.33639896   -1.34314203    1.12387598
 C         -3.68555999   -1.46380401    0.25414199
 C         -3.08751893   -1.87127197   -1.09667504
 C         -1.71626401   -1.15524197   -1.27314997
 N         -1.43349099   -0.43417999   -0.02678200
 H         -3.12705302   -1.61548400    2.34186506
 H         -0.97708601   -0.76924700    1.97500396
 H         -4.67316580   -1.91292596    0.37487301
 H         -2.94744897   -2.95333290   -1.13621199
 H         -1.74208701   -0.42861700   -2.08386588
 H         -2.68839693   -3.02961612    1.37602901
 H         -0.60771799   -2.11085701    0.87395400
 C         -3.79474998    0.06313700    0.31874999
 H         -3.75286102   -1.58577096   -1.91329598
 H         -0.90390199   -1.86226797   -1.43840802
 C         -2.36694503    0.67330098    0.21705100
 H         -4.25504208    0.37305000    1.25846195
 H         -4.41351509    0.43425900   -0.50056303
 H         -2.06506205    1.16569805    1.14039898
 H         -2.28450990    1.37895596   -0.60765803
 O          2.38943410   -2.63852811   -0.04815700
 O          0.57973301   -3.78882694   -0.67498797
 C          2.03734303   -4.75991297    0.96403098
 C          1.61566198   -3.66351199   -0.00078900
 H          3.03486490   -5.11741304    0.69745100
 H          1.33344996   -5.59137678    0.94944501
 H          2.09752607   -4.34716511    1.97446895
