55
wb97x-d4 ma-def2-tzvp(-f) cpcm(dmso) E: -1285.241590872995, G: -1284.82080361
 C          1.53132200    2.59566498    1.17071497
 C          1.42160296    1.20107603    1.78462601
 O          2.25848007    1.09626400    2.92382503
 C          1.70676303    0.10445300    0.75679398
 O          1.42139304   -1.13183796    1.37260497
 C          0.87489998    0.36128700   -0.51070303
 C          1.04868495    1.79707205   -1.00735104
 C          0.19353899    2.16600204   -2.21636200
 O          0.61268002    1.50495803   -3.40226293
 O          0.70783001    2.71369004    0.02734800
 O          1.07560098   -0.51326603   -1.54868805
 O          2.88368392    2.81800890    0.88527602
 H          2.10315394    1.91689205   -1.28617799
 H          1.16014302    3.35222292    1.86988997
 H          2.76363707    0.15515199    0.45555800
 H         -0.26744300    0.23607400   -0.15001599
 C          3.17607689    4.16730881    0.52394998
 H          3.14196301    1.38433897    2.65749693
 H         -0.86344397    1.96733201   -2.00948906
 H          0.30521801    3.23824501   -2.38788295
 H          1.28532004   -1.47060895   -1.24625099
 H          1.60051501   -1.85786200    0.73865199
 H          0.69309801    0.56487000   -3.18560410
 H          2.80915999    4.85590315    1.29258204
 H          2.72301006    4.42012501   -0.43837899
 H          4.25988102    4.24590683    0.44852200
 H          0.39628899    1.07570195    2.14173889
 C         -4.01961803    0.43831500    0.50522900
 C         -2.53423595    0.89446098    0.51234400
 C         -4.06262493   -1.08843899    0.37250301
 C         -3.15595388   -1.69593596    1.44628704
 C         -1.68731201   -1.30613697    1.12841499
 N         -1.72389996   -0.25920999    0.09525800
 H         -4.54815388    0.90562701   -0.32832101
 H         -2.35674191    1.71328902   -0.18298900
 H         -5.08607006   -1.44806802    0.49116299
 H         -3.43637395   -1.32149506    2.43304610
 H         -1.11708701   -2.14176202    0.72724998
 H         -4.49685192    0.75985998    1.43245399
 H         -2.19753194    1.18975902    1.50574398
 C         -3.51856494   -1.48357403   -1.00522602
 H         -3.24243689   -2.78382707    1.45886302
 H         -1.16927695   -0.91025603    1.99827003
 C         -2.14224911   -0.79187799   -1.20681596
 H         -4.19642591   -1.16523600   -1.79894602
 H         -3.40633512   -2.56784797   -1.06913900
 H         -2.20772195    0.04307000   -1.90337205
 H         -1.37788701   -1.48770201   -1.55186701
 O          1.61621904   -2.83765602   -0.68540400
 O          3.17618799   -3.13840699   -2.25513697
 C          3.21247911   -4.55631113   -0.31804299
 C          2.65077496   -3.42997599   -1.17007995
 H          4.11035109   -4.98162603   -0.76490200
 H          2.45457411   -5.33621979   -0.20858601
 H          3.43970490   -4.17778683    0.68159199
