55
wb97x-d4 ma-def2-tzvp(-f) cpcm(dmso) E: -1285.240729772165, G: -1284.8205733000002
 C          1.62590098    2.51578593    0.99413598
 C          1.39530504    1.17550802    1.68911397
 O          2.24390888    1.04382300    2.81689095
 C          1.55218196    0.00764100    0.71681100
 O          1.12015700   -1.16800702    1.37631094
 C          0.76026100    0.26098600   -0.57505798
 C          1.01498902    1.66155601   -1.13362598
 C          0.15412401    2.00007105   -2.33081698
 O          0.73587298    3.12558198   -2.98976707
 O          0.78178000    2.64695692   -0.13013700
 O          0.94196302   -0.68276900   -1.55149996
 O          2.98483610    2.58959603    0.66368300
 H          2.06608391    1.69205797   -1.44616699
 H          1.35120296    3.34252095    1.65795696
 H          2.60975790   -0.07889600    0.43098101
 H         -0.38431200    0.21727300   -0.22929400
 C          3.38435102    3.87700510    0.19404399
 H          3.14673400    1.21728206    2.51787710
 H          0.11742100    1.13630295   -2.99965692
 H         -0.86057699    2.23571396   -1.99512601
 H          1.29897702   -1.55936396   -1.18218803
 H          1.38012898   -1.93189895    0.82234901
 H          0.14670099    3.38772202   -3.70603108
 H          2.92170811    4.10128117   -0.77075601
 H          4.46742678    3.84999704    0.08154900
 H          3.10764503    4.65004396    0.91909802
 H          0.37371299    1.17796898    2.07365799
 C         -3.33893108   -2.12809110   -0.39296800
 C         -1.86965799   -1.62725604   -0.46160200
 C         -4.13544989   -1.17000604    0.50008798
 C         -4.22148323    0.19094899   -0.19827101
 C         -2.78557110    0.62724203   -0.60078800
 N         -1.84799302   -0.26885700    0.08897200
 H         -3.35099602   -3.14066100    0.01360600
 H         -1.19968796   -2.23755288    0.14198101
 H         -5.13629818   -1.56620395    0.67979699
 H         -4.84073400    0.12944899   -1.09462798
 H         -2.56853008    1.64999104   -0.29437000
 H         -3.77251101   -2.15889311   -1.39469099
 H         -1.49432397   -1.58800805   -1.48377299
 C         -3.38795900   -0.99553502    1.82598901
 H         -4.66340113    0.93271798    0.47033000
 H         -2.61577106    0.52534199   -1.67209303
 C         -2.05084395   -0.25532800    1.54484499
 H         -3.18657207   -1.96957195    2.27683306
 H         -3.97948694   -0.41025299    2.53196502
 H         -1.20156097   -0.74898899    2.01104307
 H         -2.08674192    0.78685898    1.86141300
 O          3.87206197   -2.33562493   -1.19454896
 O          1.80109501   -2.91680598   -0.58177203
 C          3.55973196   -4.43236923   -0.07443200
 C          3.06742001   -3.12514210   -0.67436302
 H          3.41236210   -4.40083408    1.00863695
 H          4.61540794   -4.59342194   -0.29014799
 H          2.96818399   -5.26488209   -0.46138299
