55
wb97x-d4 ma-def2-tzvp(-f) cpcm(dmso) E: -1285.241427916955, G: -1284.8205043300002
 C          1.51313305    2.68252301    0.81834900
 C          1.26347601    1.42290401    1.64341903
 O          2.05539203    1.43243396    2.81972694
 C          1.48266804    0.15221800    0.82210702
 O          1.00452006   -0.93794698    1.58499897
 C          0.79200798    0.24948700   -0.54977202
 C          1.06117702    1.58980203   -1.23490405
 C          0.27960199    1.78403497   -2.52251291
 O          0.74332201    2.90837312   -3.26475501
 O          0.73887700    2.66756105   -0.36196899
 O          1.07328999   -0.77909702   -1.41041100
 O          2.88869309    2.75248504    0.56375802
 H          2.13283610    1.61243296   -1.47256398
 H          1.18386400    3.57049799    1.36837804
 H          2.55859804    0.04160300    0.62369299
 H         -0.38022700    0.20344999   -0.29295000
 C          3.29911900    3.99972391    0.00395400
 H          2.96575904    1.61305106    2.54899597
 H          0.33711001    0.87004602   -3.11869001
 H         -0.76628900    1.98575604   -2.28761411
 H          1.32744002   -1.63378501   -0.92759001
 H          1.30947399   -1.76651001    1.15438104
 H          1.61797702    2.69752407   -3.61263609
 H          2.95637488    4.83015108    0.63051498
 H          2.90516496    4.12181997   -1.00874603
 H          4.38794422    3.98902202   -0.02685600
 H          0.22306700    1.44888604    1.97385502
 C         -3.54319000   -0.80945402    1.61452496
 C         -2.20226789   -0.06763400    1.35380399
 C         -4.11667204   -1.27340198    0.27156901
 C         -3.17971992   -2.32614398   -0.32960099
 C         -1.73952699   -1.74480104   -0.35484999
 N         -1.83738005   -0.31373399   -0.04881000
 H         -4.23590708   -0.13277300    2.11777592
 H         -2.29752898    1.00993502    1.48468101
 H         -5.11373997   -1.69417703    0.41264901
 H         -3.18577099   -3.23875499    0.26881501
 H         -1.26979303   -1.85174203   -1.33210504
 H         -3.37199998   -1.66790199    2.26747108
 H         -1.39735401   -0.44169900    1.98228705
 C         -4.17911720   -0.07466800   -0.67955101
 H         -3.49937510   -2.58194399   -1.34179604
 H         -1.10053802   -2.19851804    0.40026200
 C         -2.72727299    0.39300999   -0.97948700
 H         -4.74551010    0.74036503   -0.22425400
 H         -4.66849184   -0.34828600   -1.61578906
 H         -2.60486889    1.46387804   -0.82195902
 H         -2.41857290    0.13616200   -1.99240899
 O          1.71446800   -2.89368200   -0.08014900
 O          3.59063005   -3.17529702   -1.25819695
 C          3.47061992   -4.13240290    0.93818903
 C          2.90630507   -3.34911704   -0.23710300
 H          3.63785195   -3.44219398    1.77022099
 H          4.41251993   -4.61396503    0.67740703
 H          2.74783611   -4.87951422    1.27224004
