55
wb97x-d4 ma-def2-tzvp(-f) cpcm(dmso) E: -1285.241687721636, G: -1284.8204622100002
 C          1.44621897    2.98502207    0.75917101
 C          1.40516806    1.69046104    1.56162405
 O          2.14255404    1.85799205    2.76073599
 C          1.92713702    0.50424498    0.75699103
 O          1.75404704   -0.63221401    1.57786906
 C          1.20030701    0.43015599   -0.59525597
 C          1.28178501    1.79512203   -1.28513002
 C          0.64867097    1.88227797   -2.65409589
 O         -0.74952900    1.62498903   -2.57458305
 O          0.72400802    2.80605102   -0.44816700
 O          1.62422705   -0.55254799   -1.44800305
 O          2.77568507    3.34721708    0.53737301
 H          2.35116100    1.99433005   -1.43481302
 H          0.91655499    3.78341293    1.29021800
 H          2.99235606    0.65927899    0.53396201
 H          0.04446000    0.19958200   -0.31176201
 C          2.91338897    4.64876509   -0.03043300
 H          2.12521696    1.00691795    3.21716690
 H          0.83324301    2.88886189   -3.04513693
 H          1.14243901    1.15705097   -3.30690193
 H          1.87703705   -1.40273297   -0.96091598
 H          2.08891106   -1.42709696    1.10818601
 H         -1.10708404    1.64485896   -3.46914101
 H          2.39193702    5.39058781    0.58451498
 H          2.51632404    4.67920685   -1.04895306
 H          3.97920394    4.87359524   -0.04821500
 H          0.35011101    1.50643694    1.79630005
 C         -2.73060799   -1.74189198    1.45285296
 C         -1.28723204   -1.24791896    1.16771901
 C         -3.59033704   -1.47680295    0.21365800
 C         -2.87373400   -2.06133795   -1.00887597
 C         -1.56679595   -1.25687397   -1.24703002
 N         -1.33559597   -0.42979100   -0.05560100
 H         -3.14205694   -1.21615696    2.31733894
 H         -0.89485699   -0.63757402    1.97737300
 H         -4.57495689   -1.93319404    0.32984501
 H         -2.64055300   -3.11518097   -0.84045798
 H         -1.64478505   -0.58483398   -2.09805107
 H         -2.70369005   -2.80788898    1.68632102
 H         -0.60198998   -2.07285905    0.98423302
 C         -3.72464204    0.03889900    0.02776300
 H         -3.50373101   -1.99106801   -1.89747703
 H         -0.70576298   -1.91282296   -1.37494099
 C         -2.30634594    0.66926098    0.06541200
 H         -4.33232212    0.47514501    0.82275498
 H         -4.20766687    0.25965199   -0.92688400
 H         -2.11084795    1.17245805    1.01234698
 H         -2.13845992    1.36183500   -0.75483000
 O          2.34571004   -2.63887095   -0.10005800
 O          0.73085999   -3.88779593   -1.00589800
 C          1.58653498   -4.51660585    1.14516103
 C          1.53325999   -3.63479710   -0.09250100
 H          2.60904408   -4.86492109    1.30703795
 H          0.91459399   -5.36929512    1.05332994
 H          1.30142295   -3.92059803    2.01685309
