55
wb97x-d4 ma-def2-tzvp(-f) cpcm(dmso) E: -1285.2423026279, G: -1284.8204027600002
 C          1.70497501    2.70591903    1.33253801
 C          1.78832996    1.23704302    1.72682798
 O          2.76585102    1.08046496    2.74082303
 C          2.08989596    0.35069400    0.52384198
 O          2.06150198   -0.97904301    1.00136399
 C          1.07855499    0.64679700   -0.59203398
 C          1.00153601    2.15072608   -0.86749202
 C         -0.06303700    2.56621289   -1.87869895
 O          0.21927699    2.10798001   -3.19323206
 O          0.70869201    2.85863304    0.33285299
 O          1.27042496   -0.03021200   -1.76956403
 O          2.95956492    3.13927794    0.90406197
 H          1.98129106    2.45464802   -1.25681496
 H          1.35499597    3.31262589    2.17456293
 H          3.08368993    0.59815103    0.12563300
 H          0.00726100    0.30088699   -0.14667800
 C          3.02448606    4.54879618    0.69033998
 H          2.81998610    0.13558500    2.93323588
 H         -1.05101097    2.22986388   -1.54725301
 H         -0.08006700    3.65717793   -1.91327202
 H          1.53986204   -1.00727999   -1.62959301
 H          2.18736005   -1.60488701    0.25669500
 H          0.44091901    1.16802895   -3.12529612
 H          2.72008705    5.08673620    1.59483802
 H          2.38544607    4.85093784   -0.14400201
 H          4.06222391    4.78386688    0.45674399
 H          0.79957801    0.95869100    2.11183596
 C         -3.23814511   -1.40367496   -1.02213895
 C         -1.81576800   -0.80284899   -1.20147002
 C         -3.52608109   -1.54658306    0.47482100
 C         -3.55672693   -0.15470999    1.11563206
 C         -2.23609591    0.58521301    0.76603299
 N         -1.34096706   -0.38987899    0.12642200
 H         -3.28202105   -2.37590790   -1.51604700
 H         -1.10949194   -1.53259003   -1.59590900
 H         -4.48275185   -2.04978299    0.62552702
 H         -4.40274096    0.42405301    0.74110699
 H         -1.73553705    0.97485101    1.65150797
 H         -3.97861505   -0.75155199   -1.48970199
 H         -1.82843697    0.07194200   -1.85019195
 C         -2.39452910   -2.35738993    1.11338496
 H         -3.65876889   -0.24157099    2.19924593
 H         -2.40435505    1.39906800    0.06284100
 C         -1.07639694   -1.54553497    0.99829698
 H         -2.28400493   -3.31716299    0.60434097
 H         -2.60522103   -2.55370402    2.16610003
 H         -0.27465200   -2.12791491    0.55230403
 H         -0.74038702   -1.16228604    1.96028101
 O          2.01875210   -2.41017604   -1.28305805
 O          0.30793101   -3.30794001   -2.40098906
 C          1.36342204   -4.61961985   -0.69365501
 C          1.20063996   -3.36872292   -1.54075098
 H          1.05982006   -4.38678598    0.33136401
 H          2.41191196   -4.92258978   -0.66499603
 H          0.74754101   -5.43451595   -1.07256401
