55
wb97x-d4 ma-def2-tzvp(-f) cpcm(dmso) E: -1285.241282091305, G: -1284.82023834
 C          1.63686705    2.60171604    1.07779002
 C          1.43842196    1.22918999    1.71854901
 O          2.29200697    1.07340395    2.83906603
 C          1.61214495    0.09557600    0.70638001
 O          1.19807804   -1.10259902    1.33203602
 C          0.81438500    0.39719301   -0.57176602
 C          1.05702305    1.81818104   -1.08012605
 C          0.19303600    2.22103000   -2.27122402
 O          0.55174500    1.53074205   -3.46096396
 O          0.79234099    2.75894094   -0.04594100
 O          0.98037499   -0.49749500   -1.59652698
 O          2.99252701    2.72251797    0.75333500
 H          2.10974693    1.87621403   -1.38347697
 H          1.33852696    3.39416695    1.77222097
 H          2.67075610    0.03506000    0.41489699
 H         -0.34133500    0.32882500   -0.21599001
 C          3.36132002    4.03602982    0.33316100
 H          3.19148111    1.27186203    2.54570007
 H         -0.86553597    2.07394004   -2.03493810
 H          0.35253301    3.28502798   -2.45562410
 H          1.22205997   -1.44607699   -1.28323603
 H          1.41078997   -1.85250998    0.73735201
 H          0.59343803    0.58947998   -3.23959303
 H          4.44466400    4.03891420    0.22054701
 H          3.06600404    4.77410078    1.08660996
 H          2.89358997    4.28511906   -0.62313700
 H          0.41900900    1.19635105    2.10625100
 C         -3.21142101   -2.10613990   -0.34830099
 C         -1.75607002   -1.57144594   -0.41343501
 C         -4.03160381   -1.16545904    0.54157698
 C         -4.16155910    0.18497100   -0.16988300
 C         -2.74498892    0.64613998   -0.60577601
 N         -1.76907694   -0.19677600    0.10268400
 H         -3.19990110   -3.11885190    0.05823500
 H         -1.07983506   -2.14942598    0.21343599
 H         -5.01847219   -1.58973300    0.73346603
 H         -4.79727602    0.10145200   -1.05289900
 H         -2.55496502    1.68613994   -0.34266901
 H         -3.64303088   -2.14781594   -1.35061204
 H         -1.37037802   -1.55143905   -1.43231702
 C         -3.27824402   -0.95250100    1.85844505
 H         -4.60562706    0.92417198    0.50030798
 H         -2.58551192    0.50722200   -1.67473197
 C         -1.97787595   -0.15950200    1.55944097
 H         -3.03121996   -1.91525698    2.31122398
 H         -3.88566494   -0.38931000    2.56899309
 H         -1.10965395   -0.60491002    2.03910589
 H         -2.06120706    0.88739902    1.85126400
 O          1.56409204   -2.80305600   -0.71160400
 O          3.32369709   -2.95913005   -2.08004403
 C          3.14846611   -4.51575279   -0.26350400
 C          2.67195392   -3.33561707   -1.09421599
 H          2.50482297   -5.37431002   -0.47542700
 H          3.05601907   -4.28973484    0.80064499
 H          4.17853403   -4.77623081   -0.50475901
