55
wb97x-d4 ma-def2-tzvp(-f) cpcm(dmso) E: -1285.24139920682, G: -1284.82023454
 C          1.60324395    2.54448509    0.89688200
 C          1.31492805    1.31825101    1.76452899
 O          2.09750795    1.35172904    2.94559312
 C          1.49668503    0.00747600    0.99688500
 O          0.96931201   -1.03335500    1.79577398
 C          0.81571800    0.09121900   -0.37632599
 C          1.19766700    1.37129605   -1.11490202
 C          0.50343400    1.55274200   -2.46005106
 O          0.98962998    0.64241701   -3.43885398
 O          0.86897600    2.49969411   -0.31164399
 O          0.99152499   -0.99932802   -1.18910897
 O          2.98520088    2.59071589    0.68152899
 H          2.27975702    1.33661902   -1.29143298
 H          1.26611400    3.45492101    1.40318894
 H          2.56897712   -0.15212201    0.81168300
 H         -0.36075601    0.16091700   -0.12534399
 C          3.42867804    3.81881094    0.10373900
 H          3.01288795    1.50941706    2.67729807
 H         -0.58085501    1.46098304   -2.34376407
 H          0.72165400    2.56006503   -2.81953812
 H          1.22388995   -1.85621095   -0.67595202
 H          1.23294306   -1.88780999    1.39458704
 H          0.95032299   -0.24016500   -3.04351211
 H          4.51723194    3.78502893    0.08776800
 H          3.09494495    4.66738796    0.71040702
 H          3.05049396    3.92944193   -0.91618598
 H          0.27409801    1.38632596    2.08642602
 C         -3.40643191   -2.04812598   -0.17697001
 C         -1.90899897   -1.63679302   -0.18910100
 C         -4.20905209   -0.92840302    0.49538100
 C         -4.16551399    0.31220201   -0.40291601
 C         -2.68398499    0.59574199   -0.77021599
 N         -1.84701204   -0.20695700    0.13362800
 H         -3.51244903   -2.98658204    0.36980900
 H         -1.32994902   -2.16947508    0.56365401
 H         -5.24100399   -1.24616897    0.65333402
 H         -4.73526001    0.15172499   -1.31973696
 H         -2.42202210    1.64538598   -0.64053398
 H         -3.76133704   -2.20771503   -1.19729495
 H         -1.44960296   -1.78750396   -1.16558003
 C         -3.54779196   -0.58271199    1.83326995
 H         -4.59366989    1.17115200    0.11794000
 H         -2.45713401    0.28716800   -1.79016304
 C         -2.16044211    0.05415900    1.54728401
 H         -3.42684388   -1.48334098    2.43909788
 H         -4.15751696    0.12601800    2.39608312
 H         -1.37433398   -0.38729900    2.15529704
 H         -2.16924596    1.13496006    1.68741798
 O          1.57618105   -3.06965303    0.15368199
 O          3.20044303   -4.46157980    0.77877802
 C          3.50090289   -3.21673703   -1.24873400
 C          2.72394705   -3.63028312   -0.00774200
 H          4.41991901   -3.79295111   -1.34651101
 H          3.74326110   -2.15272689   -1.18138194
 H          2.88072801   -3.35445404   -2.13745093
