55
wb97x-d4 ma-def2-tzvp(-f) cpcm(dmso) E: -1285.241108033246, G: -1284.82010508
 C          1.65137196    2.59564209    1.10797298
 C          1.46747696    1.21689105    1.72960901
 O          2.32952905    1.08817506    2.84683990
 C          1.70826197    0.10682800    0.71261001
 O          1.43045104   -1.10764802    1.37890601
 C          0.83772397    0.35741800   -0.52611399
 C          1.03300202    1.78804803   -1.03834605
 C          0.13885599    2.17685008   -2.21219802
 O          0.47867900    1.48462498   -3.40617299
 O          0.77127302    2.72490311    0.00177600
 O          0.98606598   -0.53464699   -1.55664802
 O          2.98844910    2.76375294    0.74691898
 H          2.07764602    1.86853695   -1.36406004
 H          1.34152305    3.37946510    1.80770802
 H          2.75540400    0.13499001    0.38116199
 H         -0.29864499    0.26179799   -0.13216500
 C          3.28726602    4.08674383    0.30375099
 H          2.24363804    0.17843600    3.16013694
 H         -0.91473198    2.02296710   -1.95549500
 H          0.28421599    3.24165106   -2.40388203
 H          1.26661599   -1.47251201   -1.24552596
 H          1.64735103   -1.85341299    0.77949202
 H          0.54578203    0.54600000   -3.17912793
 H          4.36784506    4.13941002    0.17613600
 H          2.96898794    4.82160711    1.05147696
 H          2.79625297    4.30357122   -0.64899701
 H          0.42063800    1.15813005    2.05379701
 C         -4.03230810    0.47797501    0.63817698
 C         -2.54778290    0.93517500    0.58539402
 C         -4.08387184   -1.04553699    0.47718799
 C         -3.14704609   -1.67624795    1.51087606
 C         -1.68830395   -1.27054203    1.16764402
 N         -1.75167000   -0.21839599    0.14144100
 H         -4.59873581    0.96229500   -0.15994500
 H         -2.39815402    1.75080502   -0.12017300
 H         -5.10441494   -1.40414703    0.62164998
 H         -3.40387893   -1.32934403    2.51395512
 H         -1.11720896   -2.09872389    0.75207603
 H         -4.46643877    0.77930999    1.59296405
 H         -2.17403889    1.23567903    1.56383300
 C         -3.58591890   -1.41807795   -0.92373002
 H         -3.22969007   -2.76442003    1.49640095
 H         -1.15766501   -0.87340999    2.02952003
 C         -2.20561099   -0.74230301   -1.15189695
 H         -4.28283787   -1.07377100   -1.68964899
 H         -3.49169898   -2.50216389   -1.01335704
 H         -2.27548599    0.09531000   -1.84497297
 H         -1.45700598   -1.44586098   -1.51508605
 O          1.71038198   -2.79632306   -0.66824198
 O          3.16416502   -3.05346394   -2.34320688
 C          3.38678694   -4.45803308   -0.41005901
 C          2.72830105   -3.35563898   -1.22207403
 H          2.67280006   -5.27375507   -0.26962900
 H          3.64850998   -4.07692909    0.57988203
 H          4.27789497   -4.83767796   -0.90853697
