55
wb97x-d4 ma-def2-tzvp(-f) cpcm(dmso) E: -1285.242096167549, G: -1284.8199738800001
 C          1.64283895    2.61681795    1.34468102
 C          1.81122804    1.15156698    1.74081099
 O          2.80354500    1.02410400    2.74587297
 C          2.10500503    0.26820600    0.52856803
 O          2.07247496   -1.07125497    0.97351402
 C          1.09268904    0.55914599   -0.59433699
 C          0.99669701    2.06008792   -0.86856502
 C         -0.03239400    2.42962694   -1.91482496
 O          0.21376400    3.77712607   -2.31544900
 O          0.67052901    2.75781202    0.33188701
 O          1.30772197   -0.11378100   -1.76765203
 O          2.90358901    3.08775806    0.95426899
 H          1.98055601    2.38499498   -1.22961497
 H          1.26456702    3.20029092    2.19059801
 H          3.09724998    0.52168101    0.12697800
 H          0.03894200    0.20409100   -0.14497399
 C          2.95855999    4.50550222    0.79954398
 H          3.58746505    1.49469399    2.43132210
 H          0.06157900    1.74872696   -2.76418400
 H         -1.03834498    2.33835101   -1.49298406
 H          1.57975602   -1.07975101   -1.62199795
 H          2.20137501   -1.67870295    0.21573800
 H         -0.45494500    4.01870489   -2.96589589
 H          2.63290405    5.00192404    1.71995604
 H          2.32981896    4.83197308   -0.03310600
 H          3.99742508    4.76032686    0.59330302
 H          0.87128699    0.81483501    2.18576908
 C         -3.18144798   -1.54409802   -1.04563999
 C         -1.81560802   -0.81702900   -1.20642900
 C         -3.53125405   -1.61290801    0.44330201
 C         -3.58598804   -0.19233701    1.01437902
 C         -2.19340396    0.47822201    0.83472401
 N         -1.33120096   -0.48394999    0.13758001
 H         -3.11429906   -2.54930711   -1.46602798
 H         -1.06946695   -1.45083702   -1.68500304
 H         -4.49658108   -2.10484910    0.57615799
 H         -4.34491920    0.39621001    0.49547899
 H         -1.72387302    0.71646601    1.78820300
 H         -3.95115495   -0.99771798   -1.59375596
 H         -1.91713595    0.11119200   -1.76662004
 C         -2.43604898   -2.39834595    1.17060995
 H         -3.84341311   -0.21882799    2.07468605
 H         -2.25550699    1.38165700    0.23088799
 C         -1.07398796   -1.68190503    0.94832999
 H         -2.37860608   -3.41730309    0.78343201
 H         -2.65167809   -2.45233607    2.23933101
 H         -0.36899799   -2.30547094    0.40488899
 H         -0.61728698   -1.36201501    1.88252103
 O          2.07493091   -2.52602601   -1.31547201
 O          0.29305401   -3.36044908   -2.37150311
 C          1.36942506   -4.71831608   -0.71528900
 C          1.21784496   -3.45474291   -1.54702699
 H          0.71841198   -5.51175880   -1.08104801
 H          1.10348105   -4.48583508    0.32037300
 H          2.40882802   -5.05224085   -0.72029698
