55
wb97x-d4 ma-def2-tzvp(-f) cpcm(dmso) E: -1285.241790275659, G: -1284.8199712800001
 C          1.60434997    2.77959490    0.43777400
 C          1.23320401    1.78266299    1.53407204
 O          1.88828397    2.12008691    2.74528599
 C          1.52039003    0.34382600    1.10841095
 O          1.02825797   -0.50128698    2.12433791
 C          0.90396100    0.06762400   -0.27598101
 C          1.31066597    1.15256095   -1.27324104
 C          0.69450498    1.04737496   -2.65782809
 O         -0.68924397    1.37583101   -2.66825104
 O          0.97545302    2.44819307   -0.78148502
 O          1.18964398   -1.16140103   -0.80779701
 O          3.00097895    2.78651094    0.33594701
 H          2.39872193    1.06588101   -1.39044499
 H          1.23620796    3.77982903    0.68845302
 H          2.60676789    0.21485500    0.99016899
 H         -0.29506600    0.10625700   -0.10878500
 C          3.50662589    3.85508704   -0.46399200
 H          2.82783794    2.22235990    2.54168510
 H          1.24799597    1.71124804   -3.33047199
 H          0.78917998    0.02455700   -3.02260709
 H          1.27951300   -1.88157701   -0.09831500
 H          1.24147201   -1.43003094    1.89856803
 H         -0.77025002    2.28488111   -2.35426807
 H          3.21255708    3.73219800   -1.50981796
 H          4.59247112    3.82286191   -0.38417700
 H          3.13809490    4.81685781   -0.09139600
 H          0.16131601    1.87710905    1.72520697
 C         -3.31846595   -1.72875094    1.29502404
 C         -1.88808095   -1.12174904    1.26619601
 C         -4.13910818   -1.09967995    0.16634400
 C         -3.52662492   -1.51603997   -1.17454004
 C         -2.01348805   -1.16034102   -1.16092896
 N         -1.76442099   -0.33540300    0.02904300
 H         -3.77591896   -1.52425206    2.26465297
 H         -1.70657396   -0.45252299    2.10410810
 H         -5.17745781   -1.43108106    0.22498500
 H         -3.64379501   -2.58929896   -1.33400404
 H         -1.72121596   -0.58509803   -2.03552389
 H         -3.26759601   -2.81196499    1.16630197
 H         -1.11920702   -1.89136100    1.25393701
 C         -4.06528521    0.42517200    0.29786801
 H         -4.02376413   -0.99545401   -1.99587703
 H         -1.38659203   -2.04720306   -1.08023202
 C         -2.59674311    0.87652999    0.05925800
 H         -4.39352703    0.73211902    1.29297698
 H         -4.71324110    0.90762103   -0.43617201
 H         -2.23066092    1.51818395    0.85989702
 H         -2.47459412    1.38239896   -0.89531702
 O          1.41866100   -2.94069505    1.03200698
 O          2.76454902   -4.40715694    2.03735805
 C          3.44059706   -3.53302002   -0.08896800
 C          2.48671007   -3.65423393    1.09108698
 H          4.27444601   -4.22719717    0.00677200
 H          3.82266498   -2.50963092   -0.13551600
 H          2.90483308   -3.72384810   -1.02178705
