55
wb97x-d4 ma-def2-tzvp(-f) cpcm(dmso) E: -1285.240781570344, G: -1284.8199356100001
 C          1.78178298    2.39337111    1.28691804
 C          1.50631905    0.97089601    1.75883400
 O          2.39780092    0.64476401    2.81107807
 C          1.60979295   -0.03183700    0.61563599
 O          1.20195103   -1.28492904    1.13564003
 C          0.75247198    0.43652299   -0.56545299
 C          1.02363098    1.90334105   -0.90710598
 C          0.11014800    2.48284888   -1.98183501
 O          0.36391699    1.92761397   -3.26597404
 O          0.86848599    2.71859288    0.24949200
 O          0.82874000   -0.33254999   -1.69710803
 O          3.11103010    2.49700594    0.87823200
 H          2.05753493    1.95613801   -1.27026606
 H          1.56844199    3.11159897    2.08602810
 H          2.65068507   -0.07963900    0.26899800
 H         -0.38093600    0.35432801   -0.15615900
 C          3.50157499    3.83593988    0.57557797
 H          2.22106409   -0.27346200    3.05274200
 H         -0.93815398    2.35112810   -1.69653594
 H          0.30888301    3.55413389   -2.04883003
 H          1.14879203   -1.29247403   -1.51288199
 H          1.42576301   -1.97103298    0.47131401
 H          0.38935399    0.96587098   -3.15941310
 H          3.27238894    4.49989986    1.41624296
 H          2.99511504    4.20062780   -0.32233500
 H          4.57735682    3.81913209    0.40490001
 H          0.47532001    0.96705198    2.12901592
 C         -4.19403982    0.24991301   -0.05864100
 C         -2.77217793    0.73814499   -0.44780099
 C         -4.07425022   -1.14665794    0.55806702
 C         -3.30316401   -1.03788304    1.87757194
 C         -1.97093105   -0.28330001    1.61423302
 N         -1.80338502   -0.18859500    0.15619400
 H         -4.82242012    0.22786500   -0.95049798
 H         -2.61775994    0.71843898   -1.52631605
 H         -5.06566811   -1.56710994    0.73491502
 H         -3.88468409   -0.49117899    2.62182093
 H         -1.11339700   -0.81620097    2.01874995
 H         -4.64285994    0.94221997    0.65668499
 H         -2.56686997    1.73898304   -0.06964000
 C         -3.28485298   -2.03921103   -0.40507600
 H         -3.09367490   -2.03335905    2.27464008
 H         -1.98995304    0.73176098    2.01062489
 C         -1.82735896   -1.50878000   -0.48415500
 H         -3.74467301   -2.02397895   -1.39537096
 H         -3.26924896   -3.07237506   -0.05391100
 H         -1.48615897   -1.39604902   -1.51268601
 H         -1.12978399   -2.14616489    0.05633700
 O          1.62528503   -2.67012310   -1.12023103
 O          3.37522602   -2.43454289   -2.48924398
 C          3.40875411   -4.22328377   -0.89198202
 C          2.78336906   -3.01445007   -1.56675899
 H          3.39874506   -4.08792019    0.19194500
 H          4.42939091   -4.38322687   -1.23780704
 H          2.80728793   -5.10782623   -1.11842000
