55
wb97x-d4 ma-def2-tzvp(-f) cpcm(dmso) E: -1285.246743735814, G: -1284.82687381
 C         -1.04316294   -1.51321101    1.33346605
 C         -0.99462903   -0.12596400    0.69588399
 C         -1.93448699   -0.02317700   -0.50787002
 O         -1.75285602    1.16373706   -1.24461603
 C         -1.67561197   -1.19017899   -1.45139098
 C         -1.73742795   -2.51994109   -0.71100599
 C         -1.42064798   -3.71828008   -1.58958900
 O         -0.14954300   -3.63966703   -2.23006511
 O         -0.79095799   -2.50570798    0.36243701
 O         -2.64316893   -1.21258795   -2.49262500
 O         -1.11445403    0.84375298    1.65143394
 O         -2.29003406   -1.66566896    1.94934702
 H         -2.74956298   -2.66102290   -0.31309101
 H         -0.23828299   -1.62178504    2.07006407
 H          0.09222600   -0.06806600    0.23884900
 H         -2.96403098   -0.09161900   -0.13027000
 H         -0.67027903   -1.06444800   -1.87508297
 C         -2.38312888   -2.85648608    2.73033690
 H         -1.17347300    1.78279400    1.27821505
 H         -1.39855599   -4.60925102   -0.95848203
 H         -2.22066402   -3.83648491   -2.32557201
 H         -2.69165492   -0.31197000   -2.83988190
 H         -2.25657892    1.90718198   -0.81420702
 H         -0.23464200   -3.07819700   -3.00838804
 H         -1.55908298   -2.90701699    3.45068693
 H         -2.36450791   -3.74670911    2.09567094
 H         -3.33215594   -2.80925798    3.26329398
 C          3.57575703    1.15134895    1.06418800
 C          2.10747290    0.68155497    1.27538800
 C          4.04078102    0.68054700   -0.31827500
 C          3.21487308    1.40289497   -1.38757503
 C          1.70644295    1.18678606   -1.07605600
 N          1.62866998    0.17906100   -0.01286800
 H          4.20259714    0.72729599    1.85032296
 H          2.03794909   -0.13334000    1.99558496
 H          5.10190678    0.89783001   -0.45164400
 H          3.43162489    2.47233105   -1.38762903
 H          1.15659797    0.81455600   -1.93877006
 H          3.63245392    2.23941112    1.13183701
 H          1.45598805    1.49657595    1.58884501
 C          3.79395008   -0.82755899   -0.44024700
 H          3.44977307    1.00737906   -2.37771702
 H          1.22729301    2.09275293   -0.70721799
 C          2.26011205   -1.08956695   -0.38984501
 H          4.28703690   -1.35909998    0.37610599
 H          4.19057178   -1.20848203   -1.38275003
 H          1.99602497   -1.83965504    0.35389200
 H          1.86035597   -1.38698006   -1.35841501
 H         -2.30901599    5.58765507    1.86699700
 H         -3.53681898    5.59799910    0.56467199
 O         -1.22254395    3.35767698    1.12939703
 C         -2.51190710    5.33529711    0.82524699
 C         -2.23900104    3.86237788    0.57154000
 O         -3.01633501    3.23030400   -0.19381100
 H         -1.83125806    5.92228079    0.20125200
