55
wb97x-d4 ma-def2-tzvp(-f) cpcm(dmso) E: -1285.241796162104, G: -1284.82306575
 C         -1.05348897   -1.12894797    1.52186704
 C         -0.88577300    0.13008800    0.66926301
 C         -1.74248695    0.08677300   -0.59955800
 O         -1.39994800    1.09060097   -1.53715003
 C         -1.54447603   -1.24786103   -1.30534303
 C         -1.76253700   -2.41107798   -0.34873101
 C         -1.54894495   -3.77238297   -0.98740000
 O         -0.27638599   -3.92089701   -1.61244404
 O         -0.84299499   -2.28513908    0.74175501
 O         -2.45197797   -1.38188899   -2.39162493
 O         -0.99618101    1.25010598    1.45059896
 O         -2.32621694   -1.09576595    2.10102010
 H         -2.79175997   -2.38321495    0.02785800
 H         -0.28160200   -1.16241896    2.30007792
 H          0.22473800    0.05883100    0.28245100
 H         -2.79556108    0.18073200   -0.30004701
 H         -0.51104897   -1.28653705   -1.67237103
 C         -2.52310896   -2.13218307    3.06266093
 H         -1.22565699    2.07423806    0.90967703
 H         -1.60439098   -4.52976418   -0.20255700
 H         -2.35587096   -3.95666504   -1.70155799
 H         -2.37813902   -0.57540798   -2.91812706
 H         -1.58685100    1.97086298   -1.14275897
 H         -0.31878400   -3.51885104   -2.48719501
 H         -3.49008012   -1.94840598    3.52956605
 H         -1.73550904   -2.10220695    3.82375789
 H         -2.52834392   -3.11630201    2.58617997
 C          3.72284007    1.37895405    0.89351797
 C          2.22173405    1.05558395    1.14758205
 C          4.24130011    0.44180101   -0.20367500
 C          3.53006291    0.78277802   -1.51678801
 C          1.99554503    0.77531099   -1.26179600
 N          1.78798604    0.17697600    0.06125400
 H          4.27892685    1.23875105    1.82182002
 H          2.06982994    0.52351201    2.08627200
 H          5.32036018    0.55808300   -0.31768301
 H          3.82744598    1.76954806   -1.87555206
 H          1.46101201    0.17806301   -1.99817896
 H          3.83215189    2.42033911    0.58443803
 H          1.60048103    1.95065701    1.13552999
 C          3.90327191   -1.00333405    0.17813200
 H          3.78274202    0.04960900   -2.28538895
 H          1.57557595    1.77966499   -1.24004304
 C          2.35608792   -1.17079794    0.16826600
 H          4.29486799   -1.23412001    1.17088604
 H          4.34237099   -1.70490205   -0.53301799
 H          1.98957801   -1.62726796    1.08631897
 H          2.00645089   -1.74809301   -0.68655097
 H         -4.23556423    5.25020313   -0.40810299
 H         -3.67839909    4.02351189   -1.57621396
 O         -1.62997997    3.27539492   -0.02268900
 C         -3.36761689    4.70970488   -0.78412998
 C         -2.68646193    3.92056990    0.32332301
 O         -3.15355992    3.92921996    1.47372603
 H         -2.65566397    5.41395903   -1.22112298
