55
wb97x-d4 ma-def2-tzvp(-f) cpcm(dmso) E: -1285.243003924626, G: -1284.8230101200002
 C         -1.10493505   -0.88625902    1.60090601
 C         -0.82943201    0.26883200    0.63776797
 C         -1.64635706    0.15378401   -0.64964801
 O         -1.19696498    1.04394495   -1.65654004
 C         -1.51982200   -1.24975598   -1.22648501
 C         -1.78179204   -2.32213092   -0.17836100
 C         -1.50329399   -3.72760201   -0.67979199
 O         -0.15725300   -3.89859605   -1.11416900
 O         -0.91114098   -2.11882901    0.94226003
 O         -2.44964409   -1.43484700   -2.28705096
 O         -0.87958300    1.47108102    1.29514694
 O         -2.40577602   -0.74174702    2.09157610
 H         -2.82804608   -2.27073407    0.14312200
 H         -0.38297901   -0.88076198    2.42534709
 H          0.28178200    0.08873100    0.29378301
 H         -2.69973302    0.34697801   -0.40557301
 H         -0.49893600   -1.37380600   -1.60242796
 C         -2.70862794   -1.66584003    3.13689899
 H         -1.18240297    2.22226691    0.69282699
 H         -1.74360204   -4.43730593    0.11964900
 H         -2.14343810   -3.93832207   -1.53688896
 H         -2.31902909   -0.70421201   -2.90480089
 H         -1.43084002    1.95793700   -1.37695098
 H          0.41737801   -3.70665097   -0.36293000
 H         -1.97218597   -1.58440602    3.94384193
 H         -2.72336507   -2.69285393    2.76194191
 H         -3.69584703   -1.40155196    3.51403809
 C          3.64896607    1.77824104   -0.02207200
 C          2.10330892    1.59994400   -0.03631500
 C          4.29727793    0.39977899   -0.19063200
 C          3.70197010   -0.28266001   -1.42709696
 C          2.19290209   -0.55927902   -1.16261804
 N          1.84220004    0.16367500    0.06324100
 H          3.96453190    2.23138404    0.91968000
 H          1.62237203    2.09461999    0.80734801
 H          5.37757397    0.50524998   -0.30349699
 H          3.81229806    0.35868099   -2.30369711
 H          1.99053097   -1.61666000   -0.99590403
 H          3.93687201    2.44595289   -0.83565497
 H          1.65693998    1.95312500   -0.96484500
 C          3.97611809   -0.45085099    1.04322803
 H          4.20812321   -1.22788405   -1.62977803
 H          1.56415296   -0.18991500   -1.97124100
 C          2.43559003   -0.43927401    1.25945997
 H          4.46537590   -0.04803000    1.93140805
 H          4.32223082   -1.47586596    0.89680398
 H          2.14557099    0.16857000    2.11627412
 H          2.03096795   -1.44483101    1.37189102
 H         -4.68031597    4.44673920   -1.18061900
 H         -3.72728300    3.24074006   -2.08608794
 O         -1.70936894    3.29637599   -0.34765100
 C         -3.67368293    4.10418987   -1.41771400
 C         -2.90948606    3.71819401   -0.16022401
 O         -3.44776797    3.81908607    0.95385301
 H         -3.13210511    4.89335299   -1.94502497
