55
wb97x-d4 ma-def2-tzvp(-f) cpcm(dmso) E: -1285.244508764614, G: -1284.82300417
 C         -1.13338101   -1.17104197    1.61008406
 C         -0.96503597    0.00440400    0.65191299
 C         -1.71800900   -0.17029700   -0.67048401
 O         -1.28870404    0.78773302   -1.60917199
 C         -1.48231697   -1.56983602   -1.23704898
 C         -1.66523504   -2.64868903   -0.16892700
 C         -1.34256196   -4.04855108   -0.66302502
 O         -0.02133000   -4.18201590   -1.18352401
 O         -0.81470501   -2.37594104    0.95048499
 O         -2.31423306   -1.82580602   -2.36194992
 O         -1.17693102    1.18756497    1.30978298
 O         -2.44371796   -1.15430403    2.09918904
 H         -2.71307802   -2.65251708    0.15822500
 H         -0.41881800   -1.09559703    2.43798089
 H          0.16364500   -0.04439000    0.33765399
 H         -2.79114294   -0.05257500   -0.45890501
 H         -0.45776200   -1.61663699   -1.61330199
 C         -2.65772605   -2.10646105    3.14047098
 H         -1.29947305    1.98195601    0.70358503
 H         -1.41735399   -4.73482513    0.18321100
 H         -2.08528495   -4.33953381   -1.41019905
 H         -3.23629403   -1.74135697   -2.08623791
 H         -1.88720703    1.58258104   -1.55589199
 H         -0.02120100   -3.87913489   -2.09826303
 H         -1.93145299   -1.95995104    3.94765592
 H         -2.57693696   -3.12926292    2.76213598
 H         -3.66491294   -1.93721902    3.51976109
 C          3.57641602    0.05515100   -1.44061005
 C          2.11841798   -0.41043499   -1.15555799
 C          4.10869408    0.78224403   -0.20079300
 C          3.92233205   -0.12138000    1.02311099
 C          2.39662409   -0.31227699    1.26540101
 N          1.71056795    0.23726900    0.09413000
 H          3.58840203    0.72293699   -2.30418205
 H          1.43052006   -0.10247500   -1.94148803
 H          5.16512394    1.02277195   -0.33168700
 H          4.39425802   -1.09110200    0.85352898
 H          2.04745197    0.23353399    2.14161611
 H          4.19064903   -0.81609303   -1.67366195
 H          2.05051303   -1.48818004   -1.01033902
 C          3.29886103    2.06655407    0.00702200
 H          4.37292385    0.32781500    1.90950096
 H          2.12591004   -1.36363602    1.35886204
 C          1.78669906    1.69664502    0.02767300
 H          3.48062611    2.77606702   -0.80186301
 H          3.57966089    2.54243803    0.94849801
 H          1.27016902    2.01417899   -0.87673599
 H          1.27538097    2.10598707    0.89848500
 H         -3.84714794    5.23862600   -1.30455506
 H         -2.15517902    5.73548317   -1.46435201
 O         -1.53490603    3.50100589    0.19174300
 C         -2.86563611    5.19393921   -0.83243299
 C         -2.38799810    3.75651407   -0.70387101
 O         -2.84723711    2.90558004   -1.51484895
 H         -2.89094210    5.68254805    0.14220500
