55
wb97x-d4 ma-def2-tzvp(-f) cpcm(dmso) E: -1285.242570198489, G: -1284.82299194
 C         -1.00907505   -1.20874095    1.47718596
 C         -0.80160201    0.03909800    0.61628503
 C         -1.66552198    0.02975800   -0.64846498
 O         -1.25727296    0.99869603   -1.59712994
 C         -1.58254194   -1.31983602   -1.35056806
 C         -1.81263101   -2.46517992   -0.37650400
 C         -1.59933305   -3.82264400   -1.01589096
 O         -1.89048898   -4.88136578   -0.10891500
 O         -0.85786599   -2.36970210    0.68859500
 O         -2.56094503   -1.40149403   -2.37920499
 O         -0.86505902    1.16809106    1.38861096
 O         -2.27162099   -1.12269199    2.06994009
 H         -2.82809591   -2.40912509    0.02920600
 H         -0.23106501   -1.27781606    2.24581909
 H          0.31097800   -0.06206300    0.21972799
 H         -2.70646405    0.20317601   -0.34252399
 H         -0.57704300   -1.42206395   -1.77965295
 C         -2.49683595   -2.14593291    3.04022789
 H         -1.12385297    1.98772395    0.85085100
 H         -2.27463889   -3.93517303   -1.86406302
 H         -0.56569898   -3.89283109   -1.37717903
 H         -2.46062303   -0.61102003   -2.92510700
 H         -1.43705904    1.89041305   -1.22446501
 H         -1.32177401   -4.76505423    0.66212702
 H         -1.70362794   -2.13621211    3.79585099
 H         -2.53799796   -3.13232803    2.57022691
 H         -3.45415998   -1.92660701    3.51145792
 C          3.79777288   -0.17761500   -1.38901997
 C          2.32267094   -0.60194403   -1.12803602
 C          4.24145079    0.77523297   -0.27329099
 C          4.00174999    0.09893900    1.08009398
 C          2.47155595   -0.11745000    1.25803196
 N          1.83459795    0.22206999   -0.01782600
 H          3.87279606    0.31632599   -2.35964394
 H          1.68684804   -0.41909301   -1.99330199
 H          5.29932022    1.01786995   -0.38825899
 H          4.51728821   -0.86247498    1.11966097
 H          2.04982400    0.53474200    2.02255607
 H          4.42956495   -1.06708002   -1.40938795
 H          2.23977399   -1.64655602   -0.83008999
 C          3.39904904    2.05268598   -0.34260699
 H          4.37592077    0.72066998    1.89506304
 H          2.23309803   -1.15440798    1.49251699
 C          1.89523196    1.65599501   -0.31136501
 H          3.60409594    2.60257792   -1.26259601
 H          3.63077903    2.70351291    0.50266200
 H          1.40485203    1.81755102   -1.26956403
 H          1.34862196    2.18561006    0.46825099
 H         -3.62678099    3.79573011   -1.67674899
 H         -2.61549211    5.20896006   -1.38417494
 O         -1.54762995    3.17120504   -0.08467400
 C         -3.32139206    4.51920223   -0.91595000
 C         -2.63666892    3.78088999    0.22364300
 O         -3.13180590    3.79116893    1.36189699
 H         -4.19516802    5.06661081   -0.56427902
