55
wb97x-d4 ma-def2-tzvp(-f) cpcm(dmso) E: -1285.24475844049, G: -1284.82295318
 C         -1.15032399   -1.26020503    1.56534696
 C         -1.12195206   -0.03946400    0.65363997
 C         -1.95560598   -0.23096301   -0.61991298
 O         -1.74755299    0.81162202   -1.54011798
 C         -1.57723606   -1.55498195   -1.27864206
 C         -1.60083997   -2.70582891   -0.26986399
 C         -1.12282503   -4.02299595   -0.85826403
 O          0.18448800   -3.95166206   -1.42395902
 O         -0.75829202   -2.40780997    0.84776998
 O         -2.41270590   -1.85160804   -2.39066195
 O         -1.36475599    1.09977496    1.37146199
 O         -2.43549800   -1.37226796    2.10761690
 H         -2.63263798   -2.85420704    0.07530100
 H         -0.40707099   -1.15193605    2.36432004
 H         -0.00448800   -0.00211900    0.26604101
 H         -3.01171899   -0.27739501   -0.31316099
 H         -0.56697798   -1.45626497   -1.68448496
 C         -2.52455401   -2.36740494    3.12653399
 H         -1.26038599    1.94310999    0.81977600
 H         -1.07790506   -4.76001310   -0.05357600
 H         -1.84861398   -4.36551189   -1.60003805
 H         -3.32862806   -1.87951803   -2.08514094
 H         -2.22234511    1.62796402   -1.23798800
 H          0.10977400   -3.61482310   -2.32345796
 H         -3.52567291   -2.29541492    3.55012202
 H         -1.78018403   -2.18182302    3.90885806
 H         -2.37401795   -3.36865592    2.71350408
 C          3.38546491    1.43157101    1.06658304
 C          1.84502995    1.22411895    1.10649896
 C          3.92530894    0.80699003   -0.22452199
 C          3.13110805    1.35984600   -1.41303694
 C          1.66044497    0.86860901   -1.29651904
 N          1.51414800    0.27745399    0.03894600
 H          3.84747910    0.96086103    1.93661594
 H          1.51295197    0.80093700    2.05431890
 H          4.98552704    1.03856897   -0.33946800
 H          3.15957189    2.45147204   -1.41256297
 H          1.42536294    0.09763800   -2.02899408
 H          3.60326910    2.50016904    1.10206497
 H          1.29988503    2.14677596    0.91276503
 C          3.71984601   -0.71170902   -0.16481800
 H          3.55206394    1.00865996   -2.35654402
 H          0.94357699    1.68206298   -1.38928902
 C          2.22843409   -0.99697298    0.17389400
 H          4.35270691   -1.16008794    0.60285097
 H          3.97629189   -1.16454101   -1.12474096
 H          2.09897804   -1.34226096    1.19896102
 H          1.77711403   -1.71764398   -0.50673401
 H         -3.13000202    5.69046307   -0.43531501
 H         -1.84632397    5.57958412   -1.63999999
 O         -1.02175903    3.41207600    0.27682099
 C         -2.10359693    5.35803413   -0.60036498
 C         -2.00359392    3.85717797   -0.38602000
 O         -2.89718509    3.13038707   -0.89855999
 H         -1.42357194    5.90016794    0.05614900
