55
wb97x-d4 ma-def2-tzvp(-f) cpcm(dmso) E: -1285.243508779364, G: -1284.8229137800001
 C         -1.16241503   -0.94753897    1.65448797
 C         -1.02723205    0.09370900    0.54923397
 C         -1.74246204   -0.30835101   -0.74346799
 O         -1.35965204    0.53269798   -1.80608904
 C         -1.42068696   -1.75529695   -1.11903501
 C         -1.51746404   -2.69802999    0.08456100
 C         -0.99156201   -4.07521486   -0.25363600
 O         -1.33796000   -4.97248888    0.80151403
 O         -0.73103899   -2.20123696    1.17348003
 O         -2.26014900   -2.20336604   -2.17654109
 O         -1.31387305    1.34271801    1.03187394
 O         -2.49148703   -0.96095800    2.08790112
 H         -2.56621504   -2.77961397    0.39398500
 H         -0.49285799   -0.71173698    2.48966289
 H          0.11173600    0.05825400    0.26224399
 H         -2.82351899   -0.22982900   -0.55549902
 H         -0.40212601   -1.79101598   -1.51593196
 C         -2.69006205   -1.78051805    3.23949409
 H         -1.38800097    2.05816889    0.32259199
 H         -1.43722999   -4.39949608   -1.19777501
 H          0.09691200   -4.02040911   -0.37547299
 H         -3.17984295   -2.09428811   -1.90186095
 H         -1.96717000    1.32004094   -1.83210099
 H         -1.00604200   -5.84646606    0.56825602
 H         -3.72553205   -1.64259398    3.54879498
 H         -2.01979208   -1.47038102    4.04873610
 H         -2.51511788   -2.83453488    3.00728393
 C          3.21843910    2.18789506   -0.17720200
 C          1.71509802    1.78344798   -0.18469299
 C          4.06587696    0.91282898   -0.11688900
 C          3.64978504   -0.01788600   -1.26141405
 C          2.17153001   -0.45536700   -1.03731406
 N          1.66181302    0.34507099    0.07882400
 H          3.42836094    2.82227802    0.68597299
 H          1.14887595    2.29447103    0.59323001
 H          5.12447786    1.16321504   -0.20546301
 H          3.74011588    0.49662799   -2.21988392
 H          2.09090996   -1.50565696   -0.75934303
 H          3.43923998    2.75726891   -1.08146501
 H          1.24422300    1.96197104   -1.15011597
 C          3.80338192    0.20496500    1.21601903
 H          4.28575516   -0.90413898   -1.28813696
 H          1.54982698   -0.25909799   -1.90996504
 C          2.27027893   -0.01875800    1.36062896
 H          4.15938091    0.80880803    2.05227304
 H          4.32071018   -0.75583500    1.24326706
 H          1.83324206    0.61930102    2.12861609
 H          2.02733493   -1.05982995    1.57041800
 H         -2.63966799    5.72738218   -0.96891302
 H         -3.62351298    5.07885313   -2.31691289
 O         -1.52070701    3.47805405   -0.40794700
 C         -2.65961909    5.03341007   -1.81004095
 C         -2.35050893    3.61827302   -1.35031700
 O         -2.91096306    2.66140604   -1.95220804
 H         -1.88283300    5.33881378   -2.51771498
