55
wb97x-d4 ma-def2-tzvp(-f) cpcm(dmso) E: -1285.247868427013, G: -1284.8268588600001
 C         -1.16671503   -1.43720603    1.42687798
 C         -1.12422705   -0.13104200    0.63699502
 C         -1.99201596   -0.19919300   -0.62241101
 O         -1.80968297    0.90391898   -1.47877705
 C         -1.64538801   -1.45162296   -1.41540205
 C         -1.71846604   -2.68982410   -0.53084701
 C         -1.28584898   -3.96507096   -1.23082995
 O          0.05142200   -3.90298605   -1.71668100
 O         -0.83907402   -2.52489400    0.58895397
 O         -2.55210400   -1.62137103   -2.49766898
 O         -1.33331096    0.93955201    1.46049297
 O         -2.43631792   -1.56401503    1.99808204
 H         -2.74927807   -2.82423401   -0.18278100
 H         -0.39630699   -1.43537605    2.20659590
 H         -0.00827000   -0.07508500    0.23809600
 H         -3.03843808   -0.26544601   -0.29241800
 H         -0.62287802   -1.34568501   -1.79770601
 C         -2.52438307   -2.64933896    2.92148399
 H         -1.24091601    1.82834601    0.97825497
 H         -1.40405703   -4.80269003   -0.53440303
 H         -1.93018305   -4.13731194   -2.09346294
 H         -2.61108899   -0.76586801   -2.94295311
 H         -2.26779509    1.70489895   -1.11165798
 H          0.63204598   -3.78859401   -0.95482600
 H         -1.74659002   -2.56313205    3.68832493
 H         -2.42374396   -3.61046600    2.41011190
 H         -3.50669599   -2.58591008    3.38809800
 C          3.69716907   -0.60765600   -0.52937597
 C          2.21971393   -0.99200797   -0.23179901
 C          3.89918208    0.87141001   -0.18238100
 C          3.43028498    1.11262095    1.25667405
 C          1.89793098    0.85456502    1.32805204
 N          1.50259602    0.25623500    0.05010500
 H          3.91937399   -0.78075498   -1.58419299
 H          1.74369097   -1.47511601   -1.08362198
 H          4.95194912    1.14050102   -0.28392300
 H          3.95150495    0.44129601    1.94190395
 H          1.33255100    1.77678704    1.45185399
 H          4.35876083   -1.23922503    0.06568700
 H          2.12887907   -1.63381600    0.64369500
 C          3.04380393    1.71960104   -1.12973404
 H          3.63579297    2.13936496    1.56352699
 H          1.63813198    0.16070201    2.12696409
 C          1.57470596    1.21322405   -1.06022596
 H          3.40453291    1.63419604   -2.15611196
 H          3.08831501    2.77136302   -0.83971602
 H          1.27605295    0.68900597   -1.96692705
 H          0.86826801    2.01691604   -0.85901499
 H         -1.39607203    5.65543509   -1.04328895
 H         -1.57938099    5.81532097    0.70809901
 O         -1.00698698    3.31847095    0.54269397
 C         -2.00603008    5.35762215   -0.18498699
 C         -1.97387803    3.84248209   -0.08432100
 O         -2.88763499    3.18569899   -0.65205902
 H         -3.02290392    5.71539402   -0.34711701
