55
wb97x-d4 ma-def2-tzvp(-f) cpcm(dmso) E: -1285.24293129884, G: -1284.8228856800001
 C         -1.13136196   -1.07695699    1.56036603
 C         -0.86386800    0.13368399    0.66613501
 C         -1.66892803    0.08156400   -0.63284802
 O         -1.21567297    1.02434897   -1.58993602
 C         -1.53311896   -1.28826797   -1.28406203
 C         -1.79238701   -2.41765690   -0.29657701
 C         -1.50436997   -3.79319596   -0.87057602
 O         -0.15572099   -3.93421102   -1.30770302
 O         -0.92495602   -2.26943898    0.83498698
 O         -2.45896292   -1.42075002   -2.35617089
 O         -0.94213498    1.29468596    1.39114296
 O         -2.43393302   -0.97209197    2.05615091
 H         -2.83960891   -2.38925004    0.02440700
 H         -0.41073999   -1.11206996    2.38528490
 H          0.25318700   -0.00920700    0.32743499
 H         -2.72468305    0.25808501   -0.38657701
 H         -0.51052499   -1.38550901   -1.66324401
 C         -2.72708988   -1.95365000    3.05067706
 H         -1.19772804    2.08715796    0.81776297
 H         -1.74383795   -4.54510307   -0.11039700
 H         -2.13999796   -3.96232605   -1.74014699
 H         -2.32892704   -0.65845299   -2.93449903
 H         -1.43087101    1.92513800   -1.26081502
 H          0.41484401   -3.77388310   -0.54598802
 H         -3.71519804   -1.71776402    3.44398093
 H         -1.98904896   -1.91002297    3.85914898
 H         -2.73477793   -2.95909500    2.62108707
 C          3.70047402   -0.36336201   -1.34079301
 C          2.15232396   -0.45501301   -1.20485902
 C          4.23599577    0.54100800   -0.22516300
 C          3.97490907   -0.13533200    1.12514901
 C          2.46118402   -0.48769900    1.21489596
 N          1.80566895    0.16356300    0.07795300
 H          3.94965911    0.04269000   -2.32243395
 H          1.63527405    0.09374100   -1.99038398
 H          5.30601120    0.70822001   -0.35982499
 H          4.56162214   -1.05039799    1.21960402
 H          2.00802898   -0.11021300    2.13150001
 H          4.13809109   -1.36042595   -1.26279700
 H          1.80596101   -1.48779297   -1.19158399
 C          3.48647404    1.87697506   -0.26578999
 H          4.24928188    0.53295499    1.94357598
 H          2.28144193   -1.55933595    1.13376200
 C          1.99030304    1.61520696    0.07670100
 H          3.56435108    2.32459307   -1.25852799
 H          3.90337992    2.57811189    0.45874500
 H          1.31788599    2.04403901   -0.66504002
 H          1.72326195    1.98614299    1.06509304
 H         -3.59147000    3.73410201   -1.91927803
 H         -2.73417306    5.22799397   -1.54950595
 O         -3.31849408    3.81516790    1.16607702
 C         -3.41380095    4.47792816   -1.13807094
 C         -2.76005507    3.80127001    0.05703200
 O         -1.62676501    3.24145603   -0.17421800
 H         -4.35640097    4.94864893   -0.86084902
