55
wb97x-d4 ma-def2-tzvp(-f) cpcm(dmso) E: -1285.242781202376, G: -1284.82288356
 C         -1.13745499   -1.05791402    1.42977798
 C         -0.92528498    0.15845101    0.52592301
 C         -1.67738295    0.03214700   -0.80207801
 O         -1.28407896    1.00038004   -1.75687301
 C         -1.39682698   -1.32790506   -1.42946601
 C         -1.65532100   -2.44973707   -0.43453300
 C         -1.27625704   -3.81077504   -0.98292500
 O         -1.58875597   -4.85254812   -0.06363000
 O         -0.83728802   -2.24337292    0.72434801
 O         -2.22545290   -1.53186595   -2.56633592
 O         -1.11570597    1.31484103    1.23530400
 O         -2.45219898   -1.03140700    1.90100896
 H         -2.71226501   -2.45395494   -0.14709400
 H         -0.42932999   -1.03452897    2.26674390
 H          0.21207900    0.08789800    0.23203599
 H         -2.75291491    0.11111700   -0.59139001
 H         -0.33902001   -1.35905397   -1.72471201
 C         -2.70475793   -2.02988005    2.88995194
 H         -1.32690501    2.10381007    0.63662398
 H         -1.84475505   -4.00746393   -1.89185596
 H         -0.20685500   -3.81581807   -1.22829103
 H         -2.13719296   -0.74539298   -3.12018895
 H         -1.53064799    1.89191401   -1.42681599
 H         -1.11166000   -4.66771889    0.75466901
 H         -2.65292001   -3.03325295    2.45864296
 H         -3.70916891   -1.84825301    3.27060604
 H         -1.98072505   -1.94888401    3.70819592
 C          3.62558603    0.85569400   -1.32191300
 C          2.07717705    0.82276601   -1.17695999
 C          4.24672318    0.52999902    0.04005300
 C          3.90729904   -0.91980898    0.40257400
 C          2.36844110   -1.11586797    0.27918401
 N          1.78700602    0.22170900    0.12938100
 H          3.93149400    1.84619200   -1.66262603
 H          1.63906205    1.81970203   -1.18670106
 H          5.32904911    0.66452599    0.00351600
 H          4.41024685   -1.61591804   -0.27065301
 H          1.94391000   -1.57964396    1.16807401
 H          3.94416809    0.12464700   -2.06774306
 H          1.60550797    0.21620500   -1.94776297
 C          3.63482094    1.46020401    1.09414196
 H          4.22845411   -1.13998902    1.42261302
 H          2.09432507   -1.69917500   -0.59891099
 C          2.12626505    1.10769606    1.24298096
 H          3.74567604    2.50254202    0.78886300
 H          4.12694311    1.33306897    2.05968094
 H          1.48941803    1.99007905    1.18680596
 H          1.91904199    0.57136703    2.16864800
 H         -3.57173896    4.01516581   -2.10614300
 H         -2.56163907    5.39607906   -1.68587601
 O         -1.68673801    3.24725103   -0.38027701
 C         -3.31928611    4.70936823   -1.30059397
 C         -2.74489594    3.93050098   -0.12716700
 O         -3.29039693    3.98557806    0.98713398
 H         -4.20687008    5.26923323   -1.00796795
