55
wb97x-d4 ma-def2-tzvp(-f) cpcm(dmso) E: -1285.241636747036, G: -1284.82278612
 C         -1.03986394   -1.37161100    1.35663199
 C         -0.82903898   -0.01154500    0.69146001
 C         -1.72972798    0.17279001   -0.53295797
 O         -1.35130405    1.28206503   -1.33086705
 C         -1.64694405   -1.05225897   -1.43374705
 C         -1.84981298   -2.34294701   -0.65288401
 C         -1.67893195   -3.59139490   -1.50149405
 O         -0.41992101   -3.66128612   -2.16656494
 O         -0.89125597   -2.40526605    0.40871200
 O         -2.63705897   -0.99294299   -2.45281792
 O         -0.85016698    0.98957801    1.62556398
 O         -2.30429602   -1.36436999    1.95445299
 H         -2.86464596   -2.35948396   -0.23918299
 H         -0.26534599   -1.55578804    2.10987902
 H          0.26231599   -0.07642400    0.25251099
 H         -2.76327610    0.28725499   -0.17960300
 H         -0.64786202   -1.06836700   -1.88437104
 C         -2.54766989   -2.52054596    2.75467300
 H         -1.13330996    1.88055897    1.23017097
 H         -1.73636699   -4.46122694   -0.84364301
 H         -2.50162196   -3.64636207   -2.21918011
 H         -2.54235411   -0.13615200   -2.88820910
 H         -1.52534401    2.10200191   -0.82157701
 H         -0.47333100   -3.14256907   -2.97678995
 H         -2.63202906   -3.41836500    2.13606000
 H         -3.48841310   -2.34889889    3.27664089
 H         -1.74195004   -2.65737700    3.48444009
 C          4.00011206   -0.46362600    0.89032400
 C          2.46450090   -0.58295101    1.11364496
 C          4.24797916    0.50895298   -0.26753101
 C          3.53332996    1.82960105    0.03859000
 C          1.99910605    1.56675196    0.06184800
 N          1.81414700    0.11621700    0.00230100
 H          4.41661787   -1.44535196    0.65695202
 H          2.13198900   -1.62051296    1.10380900
 H          5.31868410    0.68247801   -0.38816300
 H          3.85942602    2.22109294    1.00403094
 H          1.49435198    2.00093794   -0.79973900
 H          4.47043419   -0.10160900    1.80591500
 H          2.14419198   -0.10628300    2.03987408
 C          3.66397190   -0.08576600   -1.55347896
 H          3.75533104    2.57679009   -0.72511399
 H          1.53241599    1.93219805    0.97645801
 C          2.17024899   -0.44686201   -1.30296397
 H          4.20655394   -0.98675698   -1.84427404
 H          3.73707008    0.63540900   -2.36978698
 H          2.00616002   -1.52289999   -1.25958502
 H          1.51603699   -0.00816900   -2.05509305
 H         -4.15118694    5.25348520    0.62378597
 H         -3.46417809    4.46246910   -0.82282299
 O         -1.58128595    3.20197797    0.52684999
 C         -3.24105811    4.86502981    0.16797200
 C         -2.60959697    3.78389001    1.03116596
 O         -3.08119392    3.52408910    2.15039396
 H         -2.52463508    5.68036985    0.03733500
