55
wb97x-d4 ma-def2-tzvp(-f) cpcm(dmso) E: -1285.242738674302, G: -1284.8227300400001
 C         -1.07869101   -1.04627895    1.24208605
 C         -0.80302000    0.19113800    0.38707101
 C         -1.62844801    0.20828500   -0.90169603
 O         -1.15975797    1.16855705   -1.83319604
 C         -1.55699694   -1.14165902   -1.60400403
 C         -1.84555900   -2.28350210   -0.64092302
 C         -1.63704395   -3.64417505   -1.27534795
 O         -1.97607505   -4.69723177   -0.37862799
 O         -0.92978102   -2.21187901    0.45940900
 O         -2.50493002   -1.19909000   -2.66198301
 O         -0.84659100    1.32712698    1.15251899
 O         -2.36029410   -0.92286998    1.78541696
 H         -2.87417698   -2.20696807   -0.27334499
 H         -0.33329701   -1.13741696    2.04022598
 H          0.31009001    0.04858600    0.02425300
 H         -2.67363405    0.41067201   -0.63084000
 H         -0.54065597   -1.26586497   -2.00157905
 C         -2.65276098   -1.93785405    2.74623895
 H         -1.09810603    2.14171195    0.60625899
 H         -2.28678012   -3.74410295   -2.14477706
 H         -0.59379703   -3.73315406   -1.60353398
 H         -2.36276889   -0.41667199   -3.21007204
 H         -1.34597003    2.06177092   -1.47157705
 H         -1.42803895   -4.59226608    0.40885201
 H         -1.89092398   -1.94861603    3.53341198
 H         -2.70193791   -2.92345309    2.27539802
 H         -3.62210011   -1.69171596    3.17800808
 C          3.89218497    0.33317199    1.22968805
 C          2.39149189   -0.07703000    1.22891796
 C          4.31195402    0.62497002   -0.21509001
 C          3.55488396    1.86556900   -0.70071298
 C          2.03374505    1.63928401   -0.46291900
 N          1.86683595    0.22837700   -0.10410600
 H          4.48405218   -0.48039401    1.65202701
 H          2.25887394   -1.14455903    1.40205705
 H          5.38823223    0.79807401   -0.26595801
 H          3.87632608    2.75359011   -0.15425199
 H          1.44244504    1.83474803   -1.35562801
 H          4.03599787    1.21894896    1.85151100
 H          1.81312203    0.48685899    1.96097100
 C          3.92850494   -0.57051301   -1.09501398
 H          3.74148011    2.03182793   -1.76345801
 H          1.65262997    2.23859501    0.36300901
 C          2.37689590   -0.68084401   -1.13415003
 H          4.35589218   -1.48955905   -0.68914801
 H          4.30281401   -0.43949100   -2.11150789
 H          2.02964997   -1.68824601   -0.90661800
 H          1.96589696   -0.36259100   -2.09164000
 H         -2.72341490    3.74550605    2.00939107
 H         -3.64122105    2.52643394    1.12989700
 O         -1.50387001    3.34549999   -0.31224301
 C         -3.37569094    3.58702111    1.14755905
 C         -2.63286591    3.93451500   -0.13475700
 O         -3.12516308    4.74168110   -0.93864298
 H         -4.27963591    4.18547678    1.25316596
