55
wb97x-d4 ma-def2-tzvp(-f) cpcm(dmso) E: -1285.242081443213, G: -1284.82269246
 C         -1.15840995   -1.60661101    1.32119000
 C         -1.11468506   -0.21905600    0.68747902
 C         -1.95793200   -0.10630800   -0.58957303
 O         -1.62906504    1.05042195   -1.33564496
 C         -1.74325800   -1.31122601   -1.50615799
 C         -1.75752997   -2.63094902   -0.73657697
 C         -1.31725299   -3.79686499   -1.60049903
 O         -1.40876400   -5.03422880   -0.90141499
 O         -0.82960898   -2.57892704    0.35351101
 O         -2.70210600   -1.33143604   -2.55655289
 O         -1.32328606    0.74201500    1.64169502
 O         -2.42774892   -1.80055296    1.87250495
 H         -2.76601601   -2.82246208   -0.35199299
 H         -0.38808501   -1.69518304    2.09584093
 H         -0.00235000   -0.11511600    0.30340299
 H         -3.01421809   -0.08463500   -0.28205901
 H         -0.77174598   -1.19925904   -1.99580300
 C         -2.51682496   -2.99592209    2.64867592
 H         -1.60343802    1.62929702    1.24521899
 H         -1.96872604   -3.87312794   -2.47075009
 H         -0.28997600   -3.62071609   -1.94381201
 H         -3.58369708   -1.36405504   -2.16336894
 H         -1.86336994    1.84352303   -0.80458599
 H         -0.86509001   -4.95677805   -0.10773100
 H         -1.72905803   -3.01578903    3.40980911
 H         -2.43213201   -3.88387609    2.01605797
 H         -3.49297190   -2.98459291    3.13197494
 C          3.75207496    0.05174600    0.87817502
 C          2.25997305   -0.31610501    1.12096405
 C          3.81029010    1.16237104   -0.17613301
 C          2.89519405    2.30903006    0.26742801
 C          1.42539895    1.80175698    0.24295101
 N          1.47998405    0.34828901    0.07212400
 H          4.29907990   -0.82736599    0.53175300
 H          2.08648705   -1.38935804    1.04739296
 H          4.83508301    1.52103496   -0.28685099
 H          3.16135812    2.63742089    1.27409506
 H          0.86246699    2.21068692   -0.59451097
 H          4.19776917    0.38387200    1.81711102
 H          1.89864397    0.04674300    2.08288789
 C          3.29880404    0.60684198   -1.50993705
 H          2.98779511    3.16354609   -0.40491301
 H          0.89951497    2.02152491    1.17099905
 C          1.90481806   -0.04422000   -1.27516699
 H          3.98328710   -0.14622299   -1.90384901
 H          3.21402788    1.40893698   -2.24577308
 H          1.94627094   -1.13250005   -1.30803299
 H          1.16299999    0.31392500   -1.98709404
 H         -0.81840801    5.85553980   -0.30936599
 H         -2.41550589    5.20807219   -0.77885699
 O         -2.08200312    2.93111491    0.51123101
 C         -1.38432395    4.95042992   -0.52748799
 C         -1.36707306    3.98933196    0.65044600
 O         -0.68693298    4.24555492    1.65728903
 H         -0.94972903    4.45041323   -1.39771497
