55
wb97x-d4 ma-def2-tzvp(-f) cpcm(dmso) E: -1285.243120405514, G: -1284.82267258
 C         -1.16235602   -0.61971498    1.40047204
 C         -0.84696501    0.41670799    0.32076201
 C         -1.63219905    0.15373001   -0.96254599
 O         -1.17479706    0.93934202   -2.05085492
 C         -1.47328806   -1.30076599   -1.38040102
 C         -1.74992502   -2.26108003   -0.23075500
 C         -1.41040897   -3.70120597   -0.57084298
 O         -0.04145200   -3.86966610   -0.92885602
 O         -0.93641102   -1.91982305    0.89907300
 O         -2.37455201   -1.61686802   -2.43468904
 O         -0.90918702    1.68683302    0.82829601
 O         -2.48417497   -0.42402500    1.80955005
 H         -2.81045604   -2.20756102    0.03975600
 H         -0.47967899   -0.51285499    2.25061202
 H          0.27724701    0.19278900    0.04169400
 H         -2.69239402    0.35666800   -0.76093799
 H         -0.44154701   -1.44736099   -1.71709597
 C         -2.82728601   -1.18595004    2.96681499
 H         -1.24146199    2.35460091    0.14229199
 H         -1.66476297   -4.33278608    0.28747600
 H         -2.00508094   -4.02032995   -1.42721105
 H         -2.23939395   -0.95781600   -3.12747312
 H         -1.43714201    1.86826301   -1.88033795
 H          0.49250999   -3.58797598   -0.17578299
 H         -2.79738688   -2.25826597    2.75482202
 H         -3.84051895   -0.89746100    3.24391007
 H         -2.14145899   -0.95807600    3.79010391
 C          3.78644896   -0.36747500   -1.41858697
 C          2.25208807   -0.57229400   -1.25530005
 C          4.32806301    0.28883401   -0.14355500
 C          3.87452698   -0.53862202    1.06409705
 C          2.32746410   -0.43194500    1.17657304
 N          1.85042799    0.18410701   -0.06508100
 H          3.98613691    0.26601499   -2.28502107
 H          1.69554901   -0.18946300   -2.10961294
 H          5.41773605    0.33651000   -0.17901599
 H          4.16738319   -1.58297002    0.93889397
 H          2.02108192    0.20778000    2.00383210
 H          4.25964212   -1.33615601   -1.58737803
 H          1.99219298   -1.61721599   -1.08948195
 C          3.74215198    1.70015502   -0.02216600
 H          4.32645798   -0.16526300    1.98438299
 H          1.85539699   -1.40880895    1.27681601
 C          2.19531298    1.60316300   -0.15950200
 H          4.12852287    2.35145307   -0.80768198
 H          4.00553608    2.13630795    0.94342500
 H          1.84482002    1.96489406   -1.12551105
 H          1.67532396    2.13636398    0.63596100
 H         -3.83733010    2.40255189    0.55080098
 H         -4.68907690    3.96445107    0.45458001
 O         -3.56791592    4.37768602   -1.78341603
 C         -3.71243000    3.48263693    0.43516999
 C         -2.98853993    3.76206112   -0.87466902
 O         -1.78323603    3.32262993   -0.96212399
 H         -3.10921001    3.83326602    1.27572000
