55
wb97x-d4 ma-def2-tzvp(-f) cpcm(dmso) E: -1285.242326375651, G: -1284.82264628
 C         -1.18596601   -1.46209002    1.43616104
 C         -1.19562101   -0.13458800    0.68143398
 C         -2.01909304   -0.18931399   -0.61246401
 O         -1.80306304    0.93937099   -1.43528605
 C         -1.64823103   -1.42970395   -1.42329299
 C         -1.65612698   -2.68322802   -0.55001700
 C         -1.13334203   -3.89950204   -1.28895402
 O         -1.22373903   -5.07763195   -0.49371201
 O         -0.78640598   -2.50294709    0.57429802
 O         -2.50474596   -1.59014904   -2.54672909
 O         -1.47785401    0.88846499    1.54546702
 O         -2.45933390   -1.66883898    1.97530496
 H         -2.67595506   -2.88090897   -0.19873600
 H         -0.43201399   -1.43855500    2.23190093
 H         -0.07914300   -0.00507000    0.30519599
 H         -3.07855105   -0.26298001   -0.32304099
 H         -0.64269602   -1.28937495   -1.83148396
 C         -2.51682901   -2.80197811    2.84193492
 H         -1.69119895    1.75716996    1.06762099
 H         -1.73540795   -4.07086897   -2.18082309
 H         -0.09536700   -3.71550393   -1.59389496
 H         -3.41455793   -1.65992701   -2.22926593
 H         -2.02587891    1.75320995   -0.93726999
 H         -0.72419500   -4.91759109    0.31637299
 H         -1.74987805   -2.72704506    3.62073898
 H         -2.37680101   -3.73208308    2.28429699
 H         -3.50524807   -2.79676199    3.29987001
 C          3.17038298    1.79952395    0.98002899
 C          1.73749006    1.23681104    1.21373105
 C          3.78577590    1.08144200   -0.22645099
 C          2.97917390    1.44306898   -1.47697103
 C          1.47971201    1.13272297   -1.20599103
 N          1.41600800    0.39348400    0.06079400
 H          3.77031493    1.63646805    1.87683797
 H          1.68460000    0.61257601    2.10551596
 H          4.82767200    1.38177705   -0.35091400
 H          3.08847404    2.50231695   -1.71564996
 H          1.04220104    0.51532501   -1.98778796
 H          3.12015104    2.87428403    0.79405397
 H          0.99360001    2.03120399    1.27638805
 C          3.69845700   -0.43262199   -0.00394000
 H          3.32934308    0.86309999   -2.33331800
 H          0.88529497    2.03715611   -1.08978701
 C          2.19872093   -0.84658903    0.03272800
 H          4.18061209   -0.70509797    0.93702602
 H          4.19934082   -0.97024399   -0.81075299
 H          1.95687902   -1.42508101    0.92316699
 H          1.90213895   -1.40752494   -0.85278600
 H         -1.44793606    4.52341890   -1.82633305
 H         -0.64383900    5.75921106   -0.82009101
 O         -2.12613893    3.02689695    0.26121500
 C         -1.43699896    5.01279211   -0.84913701
 C         -1.24966502    3.96613503    0.23757900
 O         -0.29898900    4.05431223    1.03264499
 H         -2.40553498    5.50155401   -0.71743202
