55
wb97x-d4 ma-def2-tzvp(-f) cpcm(dmso) E: -1285.243539210725, G: -1284.82263872
 C         -1.17715704   -1.19511402    1.52083302
 C         -0.99605900   -0.00000200    0.58941698
 C         -1.70109999   -0.16046800   -0.76102799
 O         -1.24614894    0.80908698   -1.67536700
 C         -1.45238495   -1.54928696   -1.34952199
 C         -1.64693403   -2.64851904   -0.30085999
 C         -1.24320304   -4.00379515   -0.83543301
 O         -1.67855406   -5.00671911    0.08289700
 O         -0.82972199   -2.38261509    0.84527200
 O         -2.27748299   -1.77514601   -2.48604298
 O         -1.25208402    1.16622806    1.26020706
 O         -2.49769306   -1.20202303    1.98127699
 H         -2.70165706   -2.68068600   -0.00229800
 H         -0.48119199   -1.12857401    2.36541510
 H          0.14488700   -0.02212000    0.31182700
 H         -2.78086805   -0.04958700   -0.58037001
 H         -0.42388701   -1.59294295   -1.71865594
 C         -2.72332811   -2.18229103    2.99428296
 H         -1.26546597    1.98604000    0.67158699
 H         -1.70828295   -4.14857912   -1.81412005
 H         -0.15322500   -4.03135490   -0.95288599
 H         -3.19942999   -1.66484404   -2.21926403
 H         -1.80658400    1.62818599   -1.59426904
 H         -1.41828299   -5.86448908   -0.27066299
 H         -3.73792195   -2.02894711    3.36031890
 H         -2.01193810   -2.05191588    3.81737304
 H         -2.62892509   -3.19430804    2.59142089
 C          3.52766800    0.32581800   -1.46437299
 C          2.08144498   -0.19240201   -1.21727002
 C          4.08303785    0.86456603   -0.14138100
 C          3.90725493   -0.20312200    0.94433802
 C          2.38445306   -0.40572801    1.19205797
 N          1.68560600    0.29045600    0.10889700
 H          3.51515198    1.11568499   -2.21808696
 H          1.37341201    0.19604000   -1.94752705
 H          5.13882780    1.11779702   -0.25166199
 H          4.36023808   -1.14442801    0.62689799
 H          2.05840802    0.03289600    2.13478303
 H          4.14150906   -0.49455699   -1.83963597
 H          2.03262210   -1.28077996   -1.20266902
 C          3.28134203    2.10851502    0.25815701
 H          4.38312817    0.10801600    1.87561405
 H          2.10087299   -1.45735300    1.16221297
 C          1.76782405    1.74643302    0.22683600
 H          3.46419001    2.92993593   -0.43647999
 H          3.56633401    2.43789792    1.25930202
 H          1.25670195    2.17920208   -0.63126898
 H          1.25483298    2.04719710    1.13981104
 H         -3.23972607    5.47992277   -1.62170696
 H         -1.62245202    5.89308691   -0.99476999
 O         -1.31672394    3.50488901    0.16616701
 C         -2.52367496    5.30020905   -0.82060099
 C         -2.14676499    3.83067489   -0.72951198
 O         -2.67088890    3.02062011   -1.54171097
 H         -2.95000601    5.62329912    0.13223200
