55
wb97x-d4 ma-def2-tzvp(-f) cpcm(dmso) E: -1285.244373454472, G: -1284.82262941
 C         -1.15643597   -1.39959097    1.56324005
 C         -1.19792902   -0.12415600    0.72264701
 C         -2.08415604   -0.28196901   -0.51551902
 O         -1.94020200    0.77822000   -1.44378102
 C         -1.71716905   -1.55974305   -1.25761104
 C         -1.71193099   -2.75664401   -0.31597099
 C         -1.25321400   -4.04412413   -0.97567099
 O          0.06259500   -3.95202589   -1.51261699
 O         -0.80257100   -2.50527692    0.76188803
 O         -2.65292406   -1.82155895   -2.29629993
 O         -1.44403398    0.96135300    1.51771104
 O         -2.40376210   -1.55853295    2.17297792
 H         -2.72382998   -2.91492605    0.07462100
 H         -0.36547399   -1.32788706    2.31943107
 H         -0.09506900   -0.02825100    0.29547700
 H         -3.12548804   -0.35426399   -0.17200400
 H         -0.71260798   -1.43510497   -1.67899001
 C         -2.42284107   -2.61058688    3.13733697
 H         -1.67446899    1.78679705    0.97396398
 H         -1.31321704   -4.85318613   -0.23925400
 H         -1.92013896   -4.27936792   -1.80552399
 H         -2.72101808   -1.01705503   -2.82584310
 H         -2.15567589    1.62627006   -1.00483596
 H          0.66579598   -3.79014802   -0.77742797
 H         -3.39428210   -2.56828189    3.62853289
 H         -1.62936699   -2.46462607    3.87862301
 H         -2.29716206   -3.58578992    2.65903997
 C          3.26681709    1.51378906    1.04620004
 C          1.77230299    1.11023700    1.21564198
 C          3.76856995    0.98831803   -0.30228999
 C          2.90074706    1.57881796   -1.41840899
 C          1.42617202    1.13081598   -1.19685304
 N          1.39838898    0.33162400    0.03279100
 H          3.85595894    1.09123504    1.86222506
 H          1.61592305    0.48270401    2.09296489
 H          4.81158304    1.27482295   -0.44927400
 H          2.95710993    2.66905689   -1.40544498
 H          1.05989897    0.50527400   -2.00923800
 H          3.35691690    2.60071993    1.08886600
 H          1.11578095    1.97807300    1.25975597
 C          3.63928390   -0.53864902   -0.32510099
 H          3.24535894    1.23151505   -2.39400506
 H          0.75714600    1.97748601   -1.05646300
 C          2.14940500   -0.92115200   -0.08645500
 H          4.25974798   -0.98626697    0.45329499
 H          3.96703100   -0.93164903   -1.28915000
 H          2.01297998   -1.48432696    0.83559602
 H          1.73194301   -1.48568499   -0.91875398
 H         -2.03328395    4.71483517   -1.91524804
 H         -0.91600001    5.80509710   -1.05076802
 O         -2.18068409    3.00057602    0.11741400
 C         -1.72376299    5.08333588   -0.93403703
 C         -1.29305804    3.91100907   -0.06773600
 O         -0.14618200    3.87739396    0.41007000
 H         -2.58951712    5.57145882   -0.47973999
