55
wb97x-d4 ma-def2-tzvp(-f) cpcm(dmso) E: -1285.243548720081, G: -1284.82261394
 C         -1.19226599   -1.19677198    1.50221896
 C         -1.00319803    0.00072400    0.57570797
 C         -1.69644904   -0.15760100   -0.78114003
 O         -1.23634195    0.81511801   -1.68954599
 C         -1.44011700   -1.54437602   -1.37117803
 C         -1.63888299   -2.64751911   -0.32727399
 C         -1.22333002   -3.99905896   -0.86233300
 O         -1.66201103   -5.00710011    0.04875800
 O         -0.83418000   -2.38166189    0.82755500
 O         -2.25704598   -1.76960802   -2.51371002
 O         -1.26619697    1.16534996    1.24671400
 O         -2.51780295   -1.20777702    1.94783604
 H         -2.69625497   -2.68587899   -0.03902700
 H         -0.50606799   -1.13080895    2.35481095
 H          0.14016800   -0.02062100    0.30945101
 H         -2.77788806   -0.04948800   -0.60901600
 H         -0.40908799   -1.58414900   -1.73365605
 C         -2.75225091   -2.19108701    2.95587611
 H         -1.27193499    1.98667598    0.65991199
 H         -1.67852294   -4.14307404   -1.84577405
 H         -0.13216799   -4.02066088   -0.96970499
 H         -3.18100810   -1.66306698   -2.25250697
 H         -1.79793406    1.63342798   -1.60904706
 H         -1.39472604   -5.86245918   -0.30542299
 H         -3.77122307   -2.04117608    3.31098890
 H         -2.05040503   -2.06095099    3.78715801
 H         -2.65073991   -3.20185995    2.55159593
 C          3.54776597    0.31942299   -1.42127895
 C          2.09713292   -0.19572100   -1.19354904
 C          4.08499384    0.86159801   -0.09216700
 C          3.89276505   -0.20258699    0.99411398
 C          2.36642504   -0.40313300    1.22043097
 N          1.68361402    0.29100001    0.12568600
 H          3.54722190    1.10697305   -2.17749500
 H          1.40060699    0.19277500   -1.93474603
 H          5.14249897    1.11341298   -0.18838400
 H          4.34934187   -1.14526296    0.68603897
 H          2.02722692    0.03802300    2.15734196
 H          4.16563511   -0.50306898   -1.78511703
 H          2.04575610   -1.28396499   -1.17762601
 C          3.27922201    2.10760188    0.29246101
 H          4.35551691    0.11093900    1.93118799
 H          2.08221102   -1.45455801    1.18907297
 C          1.76583505    1.74718201    0.24104200
 H          3.47266889    2.92679811   -0.40193799
 H          3.55065489    2.43952203    1.29652596
 H          1.26731205    2.17853498   -0.62516701
 H          1.24063694    2.05075312    1.14612997
 H         -2.98583508    5.60869789    0.11697400
 H         -3.21366191    5.48955202   -1.64710498
 O         -2.66523600    3.02532601   -1.55509102
 C         -2.52380610    5.30256319   -0.82494700
 C         -2.14320207    3.83364701   -0.73985797
 O         -1.31431603    3.50598502    0.15623900
 H         -1.62111294    5.90344715   -0.95802701
