55
wb97x-d4 ma-def2-tzvp(-f) cpcm(dmso) E: -1285.242479405764, G: -1284.8225644400002
 C         -1.10473299   -1.51944697    1.38004506
 C         -1.14053297   -0.16579100    0.67559099
 C         -2.02316189   -0.17272900   -0.57786399
 O         -1.85207498    0.99250698   -1.36002803
 C         -1.68475699   -1.37522495   -1.45599997
 C         -1.64674306   -2.66399789   -0.63503897
 C         -1.14345098   -3.84326291   -1.44435096
 O         -1.19534099   -5.05521488   -0.69780600
 O         -0.73690403   -2.52493191    0.46278301
 O         -2.59392595   -1.49652505   -2.54207206
 O         -1.37897897    0.83288902    1.58000004
 O         -2.35723591   -1.74692404    1.95717096
 H         -2.65129495   -2.88510489   -0.25461900
 H         -0.32116699   -1.52632904    2.14704704
 H         -0.03699500   -0.03176700    0.25847101
 H         -3.06714296   -0.26502201   -0.24148200
 H         -0.70055401   -1.20857096   -1.90543997
 C         -2.38648009   -2.91428900    2.77876592
 H         -1.61499703    1.71090102    1.13152003
 H         -1.77727401   -3.98143005   -2.31979203
 H         -0.11897500   -3.63716412   -1.77926695
 H         -3.48764300   -1.57669795   -2.18418789
 H         -2.06460810    1.77666903   -0.81480300
 H         -0.66570002   -4.92615986    0.09856200
 H         -1.58917105   -2.87385798    3.52910995
 H         -2.27352810   -3.82126188    2.17853308
 H         -3.35614395   -2.92431903    3.27509689
 C          3.70649600   -0.48330900   -0.29596001
 C          2.20305991   -0.87852299   -0.22942500
 C          3.81526995    1.04562199   -0.29902500
 C          3.27814198    1.58643794    1.03061295
 C          1.83999801    1.03165901    1.24704504
 N          1.44877100    0.35646299    0.00702300
 H          4.14856482   -0.90236700   -1.20139503
 H          1.84661698   -1.31115603   -1.16348803
 H          4.85613680    1.34574103   -0.43267000
 H          3.91313696    1.27361095    1.86119199
 H          1.12018204    1.82685399    1.43631899
 H          4.23599482   -0.89792198    0.56422198
 H          1.99648499   -1.56875598    0.58713198
 C          2.95532393    1.60164797   -1.43844903
 H          3.25477099    2.67795801    1.01225805
 H          1.80281305    0.29642400    2.05087590
 C          1.46557796    1.25837004   -1.15050006
 H          3.26019907    1.16336703   -2.39078808
 H          3.06684995    2.68498492   -1.51119804
 H          0.99472702    0.74478900   -1.98664403
 H          0.88239098    2.13864398   -0.88631803
 H         -0.98312002    5.96926212   -0.43636999
 H         -2.50044394    5.70469093    0.45759001
 O         -2.15153694    3.02395105    0.44435900
 C         -1.79574597    5.26664209   -0.25443599
 C         -1.27500796    3.95392489    0.30916899
 O         -0.07503500    3.83522296    0.61089700
 H         -2.34110808    5.07882786   -1.18197405
