55
wb97x-d4 ma-def2-tzvp(-f) cpcm(dmso) E: -1285.247896071057, G: -1284.8267931500002
 C         -1.19088399   -1.24715805    1.52020597
 C         -1.11658204   -0.04969900    0.57336998
 C         -1.92550004   -0.27414700   -0.70580298
 O         -1.68030095    0.70694602   -1.68664098
 C         -1.56255805   -1.62397897   -1.30934203
 C         -1.70539296   -2.73119998   -0.27488601
 C         -1.30048501   -4.10131407   -0.78450298
 O          0.04411900   -4.14699078   -1.25128901
 O         -0.85317498   -2.43712211    0.83954901
 O         -2.41398311   -1.92123902   -2.40856695
 O         -1.36567998    1.10889900    1.25511003
 O         -2.47791600   -1.29013503    2.06438398
 H         -2.74931097   -2.78701496    0.05497900
 H         -0.44192600   -1.14882195    2.31490898
 H          0.01258900   -0.03226300    0.21538700
 H         -2.98794889   -0.28467900   -0.42458501
 H         -0.51742500   -1.58623898   -1.64192295
 C         -2.61037803   -2.25644994    3.10629797
 H         -1.29677796    1.93562603    0.67157799
 H         -1.45509601   -4.83124208    0.01793700
 H         -1.93799806   -4.37144613   -1.62693405
 H         -2.44029593   -1.12603498   -2.95714688
 H         -2.17881489    1.53815997   -1.46637297
 H          0.62005597   -3.95254993   -0.50226903
 H         -1.85469306   -2.08887792    3.88174701
 H         -2.51011395   -3.27281904    2.71588492
 H         -3.60516691   -2.12618589    3.53086305
 C          3.23114491    1.26507902   -1.37014306
 C          1.76823902    0.74034297   -1.31451499
 C          3.94976997    0.84553200   -0.08271700
 C          3.77409410   -0.66608500    0.10480700
 C          2.26767111   -0.96052998    0.35960701
 N          1.53662097    0.27483499    0.05804900
 H          3.23264694    2.35276389   -1.46632004
 H          1.04043901    1.51781094   -1.53883505
 H          5.01017618    1.09591997   -0.14457400
 H          4.11136103   -1.19903505   -0.78649598
 H          2.06950402   -1.22045100    1.39903700
 H          3.72881508    0.84520400   -2.24580503
 H          1.60842597   -0.10541900   -1.98216605
 C          3.30456495    1.56862795    1.10379398
 H          4.35711479   -1.02282000    0.95548302
 H          1.88700104   -1.74783301   -0.28932601
 C          1.76990199    1.32800806    1.04909098
 H          3.49958897    2.64124703    1.05918801
 H          3.70860600    1.18733203    2.04377007
 H          1.22611499    2.21407890    0.72445399
 H          1.37281299    0.99271399    2.00679302
 H         -2.57274199    5.73049688    0.06082700
 H         -2.89126492    5.51515198   -1.67505002
 O         -2.88512611    3.02091408   -1.23359299
 C         -2.19914007    5.28542805   -0.86560702
 C         -2.06149411    3.78610110   -0.66418600
 O         -1.12177801    3.38753009    0.08434300
 H         -1.22142994    5.72503185   -1.07184803
