55
wb97x-d4 ma-def2-tzvp(-f) cpcm(dmso) E: -1285.243360126537, G: -1284.82247037
 C         -1.18092704   -0.91521698    1.29105306
 C         -0.86089200    0.29410401    0.41202301
 C         -1.65100098    0.26862001   -0.89729297
 O         -1.19922698    1.23075104   -1.83376396
 C         -1.49335599   -1.09054005   -1.56477106
 C         -1.81496203   -2.22431493   -0.59994799
 C         -1.54893303   -3.60260296   -1.17802501
 O         -0.19042499   -3.78460097   -1.56640399
 O         -0.98702699   -2.10913491    0.56389803
 O         -2.36763406   -1.20031905   -2.68075705
 O         -0.91683900    1.45233500    1.14199698
 O         -2.49222493   -0.77827001    1.75541794
 H         -2.87244797   -2.16959691   -0.31693101
 H         -0.47905600   -0.97248697    2.13137889
 H          0.25923100    0.11698400    0.09545600
 H         -2.71092010    0.43151501   -0.65884501
 H         -0.45143300   -1.18999100   -1.89276397
 C         -2.83798003   -1.75698996    2.73528910
 H         -1.17833102    2.24821591    0.57393497
 H         -1.84178400   -4.35413313   -0.43644801
 H         -2.15704107   -3.74134111   -2.07229304
 H         -2.22341990   -0.41639999   -3.22615099
 H         -1.41507304    2.12259889   -1.48772895
 H          0.35200399   -3.68982697   -0.77424198
 H         -2.85971689   -2.75956011    2.29957795
 H         -3.83032894   -1.49765003    3.10236812
 H         -2.12217093   -1.73677003    3.56445098
 C          3.88593102   -1.12468696   -0.06645000
 C          2.33304000   -1.21484900   -0.13561700
 C          4.29800510    0.34826401   -0.17759800
 C          3.77914691    1.10114300    1.05301404
 C          2.25313997    0.82921797    1.18872499
 N          1.82909501    0.15815100   -0.04014300
 H          4.31438208   -1.70902097   -0.88233697
 H          1.98533404   -1.63178504   -1.07991397
 H          5.38468790    0.42938700   -0.23664500
 H          4.28392410    0.75993901    1.95818603
 H          1.67664802    1.74796402    1.29153705
 H          4.23949480   -1.54519105    0.87695801
 H          1.91764796   -1.79203296    0.68932003
 C          3.65460396    0.94982702   -1.43075705
 H          3.95834494    2.17253900    0.94477600
 H          2.02683306    0.16610201    2.02336597
 C          2.11070108    0.94936001   -1.24174595
 H          3.92051411    0.36289299   -2.31217194
 H          3.99615598    1.97422695   -1.58799005
 H          1.59160900    0.49067900   -2.08114910
 H          1.71474695    1.95077896   -1.07860804
 H         -3.71561599    2.56039691    1.08543396
 H         -4.41445208    4.19648790    1.19943595
 O         -3.25120091    4.81520414   -0.97004199
 C         -3.48942804    3.62991405    1.10057795
 C         -2.74989104    4.00279713   -0.17678399
 O         -1.61284602    3.43186212   -0.35973701
 H         -2.84863710    3.81505489    1.96587801
