55
wb97x-d4 ma-def2-tzvp(-f) cpcm(dmso) E: -1285.243988753459, G: -1284.8223596
 C         -0.73874599   -1.64054704    1.92656898
 C         -0.89835203   -0.14852101    1.67911994
 C         -2.11419892    0.17559400    0.81924701
 O         -2.22212911    1.56738901    0.62798500
 C         -2.06387591   -0.63811600   -0.47284201
 C         -1.87301397   -2.11937094   -0.12960200
 C         -1.67674994   -2.96201205   -1.37522197
 O         -1.64688504   -4.35992098   -1.09392703
 O         -0.70003802   -2.29746604    0.67987102
 O         -3.25346303   -0.47107199   -1.21362197
 O         -0.81335801    0.59649998    2.83244610
 O         -1.79068398   -2.06250811    2.74293709
 H         -2.75466990   -2.47615194    0.41732299
 H          0.22299001   -1.86442494    2.40171504
 H          0.07352200    0.12980400    1.01162004
 H         -2.99685597   -0.14451000    1.38748896
 H         -1.20488906   -0.31087300   -1.07085097
 C         -1.64418495   -3.41588306    3.17728591
 H         -1.18970299    1.47014594    2.63530302
 H         -2.46743298   -2.72306895   -2.09071302
 H         -0.71174902   -2.71583700   -1.82539797
 H         -3.10688210    0.31235400   -1.80289400
 H         -1.77317798    1.83258605   -0.22427100
 H         -2.53265095   -4.62889290   -0.82367200
 H         -1.72097802   -4.10822487    2.33481193
 H         -2.45164609   -3.60742497    3.88281989
 H         -0.67847800   -3.55390906    3.67561102
 C          2.78128600    2.58107805    0.23528101
 C          1.42685294    2.03476906    0.76721299
 C          3.65946603    1.39699805   -0.18037200
 C          2.97930408    0.65765202   -1.33707404
 C          1.54572594    0.24744500   -0.89731097
 N          1.41456997    0.58367401    0.52860600
 H          3.26979303    3.16573000    1.01647496
 H          1.31390905    2.19336605    1.83933103
 H          4.64348221    1.75217295   -0.49121001
 H          2.91532111    1.30046701   -2.21673393
 H          1.37016404   -0.82221901   -1.00690198
 H          2.60255003    3.23651004   -0.61945897
 H          0.57886100    2.46645904    0.23965301
 C          3.79953408    0.44178301    1.00963902
 H          3.55303311   -0.23136000   -1.60635602
 H          0.78013098    0.80464202   -1.43480802
 C          2.39583397   -0.12513299    1.36029196
 H          4.21141195    0.97064501    1.87122297
 H          4.47055101   -0.38285601    0.76388299
 H          2.13653588    0.04178400    2.40583706
 H          2.31656504   -1.18764997    1.13205802
 H         -0.02435500    2.99185109   -3.89661407
 H         -1.38584101    4.10307407   -3.74473310
 O         -2.67438602    1.54162502   -2.87480688
 C         -1.11407900    3.05146408   -3.87417889
 C         -1.65683198    2.26163101   -2.69242096
 O         -1.05180299    2.39512396   -1.58968103
 H         -1.52930701    2.69363809   -4.81597281
