55
wb97x-d4 ma-def2-tzvp(-f) cpcm(dmso) E: -1285.244513423337, G: -1284.82235399
 C         -1.08224595   -1.17158198    1.55758095
 C         -0.91843998    0.02549100    0.62451100
 C         -1.67934299   -0.12252900   -0.69447100
 O         -1.26219404    0.86200500   -1.61272705
 C         -1.44086206   -1.50077999   -1.29805100
 C         -1.59788096   -2.61247396   -0.25822601
 C         -1.15599406   -3.97428489   -0.78375697
 O         -1.93592203   -4.39079380   -1.90759802
 O         -0.75471699   -2.35985899    0.86826098
 O         -2.36688209   -1.66591597   -2.36632895
 O         -1.13027000    1.19314003    1.30899405
 O         -2.39174390   -1.17642200    2.04388404
 H         -2.64640808   -2.66426611    0.05799900
 H         -0.36844301   -1.11446702    2.38727593
 H          0.21092699   -0.01316200    0.30644199
 H         -2.75102091   -0.02045900   -0.47695100
 H         -0.41281000   -1.53342199   -1.68349898
 C         -2.59968495   -2.15551710    3.06191993
 H         -1.28482604    1.99398005    0.71977800
 H         -0.12061900   -3.91289401   -1.12697005
 H         -1.21403205   -4.70939302    0.02378400
 H         -2.33308792   -2.60153294   -2.61986399
 H         -1.88227797    1.63921905   -1.54868996
 H         -2.78821206   -4.70732307   -1.58417404
 H         -2.51515603   -3.16794610    2.65761209
 H         -3.60674596   -2.00019693    3.44713712
 H         -1.87216306   -2.02607703    3.87083006
 C          3.73061705   -0.08372500   -1.25768197
 C          2.20772791   -0.38146299   -1.11394501
 C          4.16457081    0.83343202   -0.10964300
 C          3.92032194    0.11459000    1.22099304
 C          2.41010308   -0.25720900    1.31482804
 N          1.76168895    0.27701500    0.11614600
 H          3.91641688    0.39441699   -2.22084999
 H          1.62961602    0.02738700   -1.94125497
 H          5.22316885    1.07968295   -0.21062200
 H          4.52182293   -0.79378003    1.28184402
 H          1.93146598    0.19169600    2.18495107
 H          4.29062605   -1.01993501   -1.22748494
 H          2.00652194   -1.44784498   -1.01950896
 C          3.32592607    2.11497808   -0.14546500
 H          4.19136095    0.76087201    2.05764103
 H          2.25314498   -1.33534205    1.32904196
 C          1.82534695    1.73639596    0.03708900
 H          3.45797396    2.62964106   -1.09886098
 H          3.63003397    2.79308701    0.65346599
 H          1.21307695    2.05350804   -0.80553597
 H          1.40992498    2.14107490    0.95908201
 H         -2.36152411    5.73003387   -1.48322797
 H         -2.88039994    5.71420479    0.21030600
 O         -1.58182800    3.51907206    0.24317500
 C         -2.96635008    5.19540501   -0.74459600
 C         -2.44479299    3.77107501   -0.64360303
 O         -2.88420701    2.92654395   -1.47254097
 H         -4.00130606    5.20264292   -1.08844495
