55
wb97x-d4 ma-def2-tzvp(-f) cpcm(dmso) E: -1285.244854226541, G: -1284.82219389
 C         -1.13181305   -1.14376998    1.58834803
 C         -1.07665706    0.01951800    0.60384500
 C         -1.88561904   -0.23982400   -0.67111498
 O         -1.62812400    0.73673397   -1.65230405
 C         -1.53305101   -1.60720396   -1.24015105
 C         -1.57260704   -2.69341993   -0.16148899
 C         -1.01685798   -4.02696323   -0.65189201
 O         -1.75856805   -4.54523611   -1.75900900
 O         -0.73909003   -2.33644795    0.94221699
 O         -2.45771694   -1.89541197   -2.28259110
 O         -1.33321404    1.19783795    1.24938798
 O         -2.42430711   -1.21595705    2.11391401
 H         -2.60835600   -2.82707500    0.17336901
 H         -0.39862499   -0.99755901    2.39028907
 H          0.04873000    0.03130800    0.24053800
 H         -2.94807911   -0.24132700   -0.39097801
 H         -0.51045698   -1.55625498   -1.64192700
 C         -2.53358006   -2.13565493    3.19990706
 H         -1.27127600    2.00788593    0.64430702
 H          0.00845300   -3.88431191   -1.00135696
 H         -1.00768805   -4.73984909    0.17724800
 H         -2.34103894   -2.83281207   -2.50344396
 H         -2.14380097    1.55871201   -1.44786406
 H         -2.57485700   -4.93417978   -1.42185199
 H         -2.36277890   -3.16248894    2.86522388
 H         -3.54697800   -2.04368210    3.58895898
 H         -1.81343997   -1.88460898    3.98641396
 C          3.35184097    1.64592397    1.06092799
 C          1.81587195    1.41400099    1.01032698
 C          3.99414611    0.87698197   -0.09813300
 C          3.27488208    1.25083899   -1.39941394
 C          1.81317699    0.72481900   -1.32509005
 N          1.58011603    0.31980500    0.06578700
 H          3.75114703    1.29471195    2.01459599
 H          1.41212499    1.12420905    1.98006403
 H          5.05526781    1.12151206   -0.17022701
 H          3.27416396    2.33454394   -1.53275502
 H          1.65831101   -0.15000600   -1.95541406
 H          3.55418110    2.71496892    0.97912800
 H          1.27964604    2.28824592    0.64364100
 C          3.81353092   -0.62543303    0.14663801
 H          3.77275300    0.80199897   -2.26049495
 H          1.08366096    1.48929596   -1.58532500
 C          2.30719304   -0.90371603    0.42033300
 H          4.39909315   -0.95279598    1.00732899
 H          4.14412308   -1.19313395   -0.72557598
 H          2.11325908   -1.11410499    1.47151697
 H          1.92042601   -1.71992600   -0.18821800
 H         -1.51589203    5.91253996   -0.42798001
 H         -3.20171809    5.63333797   -0.95256698
 O         -1.10974503    3.46197796    0.03338000
 C         -2.16509700    5.30908823   -1.06167996
 C         -2.04820299    3.83075500   -0.73007900
 O         -2.88593006    3.04538488   -1.25131202
 H         -1.88093305    5.45622110   -2.10740089
