55
wb97x-d4 ma-def2-tzvp(-f) cpcm(dmso) E: -1285.242689520819, G: -1284.82213668
 C         -1.09574401   -0.91822702    1.31723297
 C         -0.79648501    0.23845901    0.36172700
 C         -1.59548497    0.13498500   -0.93788701
 O         -1.13610005    1.02988601   -1.93576300
 C         -1.46685302   -1.26519096   -1.52241695
 C         -1.78017795   -2.32707405   -0.47790399
 C         -1.52690601   -3.73183990   -0.98814601
 O         -1.89886606   -4.71555805   -0.02795700
 O         -0.91391498   -2.14883399    0.65039903
 O         -2.36114192   -1.42991400   -2.61484194
 O         -0.84582299    1.43981600    1.01858199
 O         -2.39711595   -0.75677502    1.80175102
 H         -2.82482505   -2.23708797   -0.16156800
 H         -0.37827101   -0.92913902    2.14551592
 H          0.32395601    0.05410900    0.04155300
 H         -2.65167499    0.32689601   -0.70512402
 H         -0.43109399   -1.40046799   -1.86194396
 C         -2.72249889   -1.68951297    2.83259892
 H         -1.12742805    2.19658899    0.40615201
 H         -2.13258696   -3.90990996   -1.87662303
 H         -0.46809900   -3.83211398   -1.25777698
 H         -2.21537304   -0.68349397   -3.21031404
 H         -1.35106802    1.94257498   -1.64953005
 H         -1.38001394   -4.55228281    0.76915401
 H         -2.75635099   -2.71062207    2.44303012
 H         -3.70577598   -1.41074097    3.20962000
 H         -1.98784304   -1.63433802    3.64341593
 C          4.00002718   -0.72869998   -0.73719198
 C          2.45426702   -0.88666099   -0.82745999
 C          4.31787777    0.67444098   -0.20568700
 C          3.83298111    0.77704799    1.24553001
 C          2.35355711    0.30214700    1.29754698
 N          1.87887502    0.24042100   -0.08648700
 H          4.43122101   -0.87613302   -1.72863996
 H          2.09452105   -0.82838202   -1.85414302
 H          5.39149094    0.86213303   -0.25884101
 H          4.43155384    0.14667299    1.90494204
 H          1.71781003    0.99737698    1.84597898
 H          4.41264677   -1.48819304   -0.06984200
 H          2.10664201   -1.81317604   -0.37183899
 C          3.55675912    1.70551002   -1.04487705
 H          3.90858197    1.80773699    1.59767795
 H          2.25909495   -0.69515598    1.72626197
 C          2.03474498    1.51762104   -0.78944403
 H          3.77435303    1.56638896   -2.10574102
 H          3.84425092    2.72092605   -0.76759100
 H          1.46305203    1.46917498   -1.71386695
 H          1.62395895    2.29931808   -0.15107900
 H         -3.71937299    2.34433508    0.72929299
 H         -4.49227524    3.94835401    0.82131797
 O         -3.22994089    4.65356493   -1.26379704
 C         -3.54008102    3.42209291    0.76955003
 C         -2.74490190    3.84376097   -0.45819601
 O         -1.57978904    3.31513000   -0.58880103
 H         -2.95833611    3.62206006    1.67248702
