55
wb97x-d4 ma-def2-tzvp(-f) cpcm(dmso) E: -1285.243558133013, G: -1284.82213486
 C         -1.15607905   -1.38886702    1.53185904
 C         -1.08340597   -0.12453600    0.67791998
 C         -1.98859096   -0.21688800   -0.55109102
 O         -1.74834895    0.81459999   -1.49261999
 C         -1.74649799   -1.53094804   -1.28173995
 C         -1.80115700   -2.72315693   -0.33511400
 C         -1.40222299   -4.03035402   -0.99571002
 O         -0.08002300   -3.99593997   -1.52389002
 O         -0.87747598   -2.52484202    0.74305803
 O         -2.72956204   -1.72861898   -2.29069805
 O         -1.21622896    0.99089402    1.45910704
 O         -2.42372108   -1.44121003    2.11822605
 H         -2.81902504   -2.82985806    0.05631300
 H         -0.37986401   -1.37546396    2.30479789
 H          0.01915200   -0.13354699    0.24451099
 H         -3.03042293   -0.18692800   -0.20423099
 H         -0.74992198   -1.48970902   -1.73531699
 C         -2.54269099   -2.47506809    3.09573889
 H         -1.55273104    1.79406297    0.93590999
 H         -1.50319803   -4.83699083   -0.26100501
 H         -2.07378197   -4.23338509   -1.83033395
 H         -2.74370503   -0.92839497   -2.83106089
 H         -2.00176311    1.67085004   -1.08856499
 H          0.52063900   -3.81300306   -0.79106098
 H         -2.47811294   -3.46372795    2.63318110
 H         -3.51947594   -2.35453796    3.56271195
 H         -1.75782096   -2.37665391    3.85377192
 C          3.53945303   -0.10608100   -1.29777896
 C          2.09745789   -0.62949198   -1.02901900
 C          3.88834000    0.94570899   -0.23799901
 C          3.66930604    0.33843800    1.15114605
 C          2.15391803    0.02959800    1.31771302
 N          1.52411497    0.23161100    0.00969600
 H          3.59209299    0.33192101   -2.29637909
 H          1.46982706   -0.56013101   -1.91618097
 H          4.92798519    1.25842500   -0.35017300
 H          4.24792910   -0.58095700    1.25925601
 H          1.67087901    0.70296299    2.02521610
 H          4.23909521   -0.94238299   -1.25492895
 H          2.09076309   -1.65401196   -0.65822202
 C          2.95522904    2.15022397   -0.40015200
 H          3.98374701    1.03335202    1.93144000
 H          1.98382401   -1.00286996    1.62113595
 C          1.48612595    1.64162600   -0.38717899
 H          3.14627790    2.66562796   -1.34286702
 H          3.11240911    2.86082006    0.41389400
 H          1.02522898    1.69128597   -1.37242305
 H          0.86839199    2.18816400    0.32497999
 H         -3.04714608    5.38350916   -0.62340999
 H         -2.10196996    4.66100311   -1.92281306
 O         -2.19769597    2.94428396    0.09550600
 C         -2.03729391    5.08774185   -0.91894799
 C         -1.52042198    4.03539085    0.04897500
 O         -0.51125199    4.26204777    0.73660398
 H         -1.39058197    5.96439981   -0.93175697
