55
wb97x-d4 ma-def2-tzvp(-f) cpcm(dmso) E: -1285.240681368038, G: -1284.82209577
 C         -1.07718599   -1.31457996    1.31332004
 C         -0.89584702    0.03875400    0.62852299
 C         -1.73310399    0.14862300   -0.64725000
 O         -1.38574100    1.26332700   -1.45006394
 C         -1.52427804   -1.08190203   -1.52183998
 C         -1.71415901   -2.36855102   -0.72588497
 C         -1.37969804   -3.59013700   -1.55198097
 O         -1.75941300   -4.75592613   -0.82077402
 O         -0.82825601   -2.35926604    0.39909601
 O         -2.45190811   -1.07673597   -2.59927607
 O         -1.02757800    1.05508304    1.53729796
 O         -2.36725903   -1.36170995    1.85084999
 H         -2.75216603   -2.43612909   -0.38239300
 H         -0.32882199   -1.44152999    2.10474801
 H          0.21979900    0.01473800    0.25687101
 H         -2.79015589    0.19886500   -0.35243100
 H         -0.49513799   -1.05453002   -1.90689695
 C         -2.58232498   -2.50543904    2.67709589
 H         -1.23053098    1.94413996    1.09497499
 H         -1.92357695   -3.53378010   -2.49888301
 H         -0.30329701   -3.59599805   -1.76193798
 H         -2.39421701   -0.20641100   -3.01422310
 H         -1.54778504    2.08789492   -0.94411898
 H         -1.57290900   -5.52417517   -1.37160802
 H         -2.56551695   -3.42632604    2.08802009
 H         -3.56374097   -2.38289404    3.13392711
 H         -1.81713605   -2.56061697    3.45939493
 C          3.92587304   -0.91835302   -0.15482099
 C          2.38089609   -1.11927199   -0.16872001
 C          4.22697306    0.58354902   -0.09307500
 C          3.70041490    1.14210296    1.23362303
 C          2.19643903    0.76296902    1.36777902
 N          1.78407800    0.19452100    0.08466300
 H          4.35242796   -1.36014402   -1.05680394
 H          2.01869297   -1.47071397   -1.13403201
 H          5.30248213    0.75222403   -0.16992401
 H          4.25141621    0.72171199    2.07646894
 H          1.56921506    1.62949705    1.57444000
 H          4.35623503   -1.42673802    0.71018201
 H          2.05104089   -1.80358696    0.61134702
 C          3.49970698    1.28102505   -1.24717200
 H          3.81337404    2.22753501    1.25890803
 H          2.02982211    0.00733600    2.13508701
 C          1.96645403    1.12403500   -1.03415298
 H          3.78827500    0.83500600   -2.20085812
 H          3.75162601    2.34232306   -1.27770495
 H          1.46978796    0.70522499   -1.90739000
 H          1.48843706    2.06483603   -0.76471102
 H         -3.97814608    5.49285698    0.18544000
 H         -3.35408902    4.55344391   -1.19523299
 O         -3.23047900    3.63694191    1.75283599
 C         -3.10354805    4.98889494   -0.22428900
 C         -2.61314011    3.88940597    0.70541698
 O         -1.54988003    3.27486992    0.32531500
 H         -2.30242991    5.71371698   -0.38718200
