55
wb97x-d4 ma-def2-tzvp(-f) cpcm(dmso) E: -1285.240535469698, G: -1284.82209072
 C         -1.07942903   -1.24500000    1.42012405
 C         -0.82748997    0.02076500    0.60016501
 C         -1.64447904    0.04299700   -0.69444603
 O         -1.20252299    1.02877605   -1.61058199
 C         -1.54436803   -1.29030001   -1.42535400
 C         -1.80563104   -2.46341610   -0.48889899
 C         -1.57493305   -3.78994107   -1.17571294
 O         -2.02935505   -4.83268023   -0.31391999
 O         -0.89713401   -2.38887095    0.61578298
 O         -2.49366307   -1.33594799   -2.48332596
 O         -0.91364098    1.13268006    1.39474201
 O         -2.36820698   -1.16203499    1.95697999
 H         -2.83803606   -2.41969204   -0.12621500
 H         -0.33891100   -1.33611596    2.22290897
 H          0.30046600   -0.07831500    0.24578699
 H         -2.69461012    0.21380800   -0.42017400
 H         -0.52696699   -1.38367605   -1.82815099
 C         -2.64661193   -2.20752501    2.88850093
 H         -1.12870896    1.96926105    0.86361402
 H         -2.12817597   -3.79891300   -2.11892104
 H         -0.50544298   -3.90098691   -1.39134002
 H         -2.37538099   -0.52842700   -2.99995995
 H         -1.37871003    1.91468000   -1.22300506
 H         -1.88734603   -5.67227077   -0.76503903
 H         -1.88795102   -2.22672105    3.67865801
 H         -2.67683411   -3.18073893    2.39134097
 H         -3.62171006   -1.98970199    3.32270288
 C          3.89156795   -0.25860599   -1.10408103
 C          2.40622711   -0.68722802   -0.91470599
 C          4.24186087    0.79144198   -0.04352800
 C          3.91756892    0.22529601    1.34275198
 C          2.38276792   -0.01617900    1.43015802
 N          1.83118498    0.21094900    0.09146100
 H          4.03154087    0.15429400   -2.10488605
 H          1.83206904   -0.58134401   -1.83406198
 H          5.30178881    1.04446399   -0.10513800
 H          4.44818211   -0.71537501    1.50209200
 H          1.89390504    0.67916101    2.11195207
 H          4.53393412   -1.13497698   -1.00373900
 H          2.31478405   -1.70766401   -0.54416698
 C          3.38901305    2.04150105   -0.27775800
 H          4.21880102    0.92372400    2.12508297
 H          2.14975595   -1.03903902    1.72449195
 C          1.89259601    1.61939502   -0.30911100
 H          3.64760995    2.51368189   -1.22693300
 H          3.55581403    2.76735997    0.52047098
 H          1.46115506    1.69748294   -1.30507696
 H          1.29005206    2.19715190    0.39089501
 H         -3.98889303    5.23813009   -0.57993299
 H         -3.41388607    3.99006295   -1.71655595
 O         -3.03532505    3.89333606    1.35804498
 C         -3.12115502    4.66903019   -0.91148901
 C         -2.51938891    3.86285400    0.22925501
 O         -1.47116399    3.18065190   -0.06718900
 H         -2.36658406    5.34875917   -1.31456697
