55
wb97x-d4 ma-def2-tzvp(-f) cpcm(dmso) E: -1285.242687129512, G: -1284.8220588600002
 C         -1.00389802   -1.02389705    1.51067698
 C         -0.82373500    0.21015701    0.62442797
 C         -1.68360996    0.14618400   -0.64035100
 O         -1.33319795    1.12818098   -1.59803104
 C         -1.50574505   -1.20420897   -1.32312906
 C         -1.72146595   -2.34446192   -0.33891100
 C         -1.43648899   -3.70151496   -0.95097202
 O         -1.71110904   -4.75820303   -0.03648700
 O         -0.80288398   -2.19754791    0.75224501
 O         -2.43344092   -1.34486496   -2.39091492
 O         -0.91524303    1.35278201    1.37573504
 O         -2.27609897   -0.96785802    2.08571601
 H         -2.75041699   -2.32189703    0.03564800
 H         -0.23159900   -1.04788494    2.28876209
 H          0.28404000    0.11542800    0.23463500
 H         -2.73511696    0.25560200   -0.34048799
 H         -0.47821000   -1.26465404   -1.70676994
 C         -2.48331499   -1.98126495    3.06999993
 H         -1.21070504    2.14949489    0.82845300
 H         -2.08247805   -3.85324502   -1.81565797
 H         -0.39095700   -3.73510408   -1.28213596
 H         -2.36855102   -0.54129601   -2.92330289
 H         -1.54555094    2.01525998   -1.22975302
 H         -1.16900098   -4.60887718    0.74791300
 H         -3.45047998   -1.78017199    3.52916408
 H         -1.69782102   -1.93918002    3.83261299
 H         -2.49409199   -2.97559500    2.61531496
 C          3.79321098    1.42010403    0.77862102
 C          2.29859495    1.09680498    1.06578505
 C          4.29619789    0.45552200   -0.30204901
 C          3.57282996    0.77175099   -1.61490500
 C          2.04256105    0.79510498   -1.33822298
 N          1.84433103    0.21124400   -0.00684300
 H          4.36451387    1.30717802    1.70136499
 H          2.16699791    0.56915700    2.01003504
 H          5.37471819    0.56209397   -0.42936501
 H          3.87930703    1.74372804   -2.00499201
 H          1.48584902    0.20288099   -2.06206393
 H          3.89314890    2.45318699    0.43971899
 H          1.67517304    1.99050403    1.06203401
 C          3.95198607   -0.97862899    0.11529400
 H          3.80404997    0.01417400   -2.36648011
 H          1.64173102    1.80728197   -1.31773996
 C          2.40404105   -1.13957703    0.10626200
 H          4.34086800   -1.18576598    1.11438894
 H          4.38887596   -1.70035696   -0.57676798
 H          2.03556490   -1.59093904    1.02612603
 H          2.05137897   -1.71818304   -0.74660999
 H         -3.70696902    3.69196892   -1.81084895
 H         -3.02814794    5.26776600   -1.41000605
 O         -1.71081495    3.30629992   -0.12283100
 C         -3.60761809    4.43077517   -1.01184905
 C         -2.85688496    3.81602311    0.15927400
 O         -3.35112500    3.83544588    1.29775000
 H         -4.59320021    4.78308582   -0.70947802
