55
wb97x-d4 ma-def2-tzvp(-f) cpcm(dmso) E: -1285.242717929577, G: -1284.82202718
 C         -1.09792304   -0.92195600    1.31264603
 C         -0.79483598    0.24092700    0.36606401
 C         -1.59568799    0.15057300   -0.93342400
 O         -1.13274896    1.05134296   -1.92484200
 C         -1.47534096   -1.24553394   -1.52923596
 C         -1.78864706   -2.31498408   -0.49239299
 C         -1.53902197   -3.71622705   -1.01412296
 O         -1.91004097   -4.70647287   -0.06031300
 O         -0.91990203   -2.14769697    0.63571203
 O         -2.37503099   -1.39779997   -2.61910105
 O         -0.83930898    1.43751395    1.03185201
 O         -2.39881802   -0.76025802    1.79832494
 H         -2.83254099   -2.22552490   -0.17349800
 H         -0.38059700   -0.94188303    2.14089108
 H          0.32455501    0.05444600    0.04392600
 H         -2.65057492    0.34580100   -0.69764203
 H         -0.44158199   -1.38228798   -1.87424195
 C         -2.72729301   -1.70058203    2.82130408
 H         -1.12324202    2.19909501    0.42624199
 H         -2.14724493   -3.88663507   -1.90237498
 H         -0.48107001   -3.81614304   -1.28725696
 H         -2.22747302   -0.64830399   -3.21023798
 H         -1.34587896    1.96248603   -1.63289106
 H         -1.38865304   -4.54999399    0.73650301
 H         -1.99269795   -1.65434396    3.63272810
 H         -2.76405406   -2.71830010    2.42322612
 H         -3.70985007   -1.42204702    3.20035410
 C          3.99246812   -0.73828697   -0.75963002
 C          2.44547105   -0.88484299   -0.84655303
 C          4.32126904    0.65398002   -0.20680501
 C          3.84178591    0.73613101    1.24743402
 C          2.35874200    0.27235299    1.29645896
 N          1.87975001    0.23470201   -0.08701400
 H          4.41906881   -0.87234902   -1.75495994
 H          2.08244109   -0.80905002   -1.87090194
 H          5.39594603    0.83539099   -0.26041499
 H          4.43745995    0.08992800    1.89404202
 H          1.73002005    0.96447402    1.85677803
 H          4.40272379   -1.51105499   -0.10621200
 H          2.09357905   -1.81575799   -0.40334901
 C          3.56462193    1.70372999   -1.02677202
 H          3.92677212    1.76005602    1.61671805
 H          2.25726104   -0.73031002    1.71079099
 C          2.04183006    1.52120996   -0.77121902
 H          3.77904296    1.58127403   -2.09033489
 H          3.85915709    2.71246791   -0.73302197
 H          1.46831000    1.48968995   -1.69525099
 H          1.63689995    2.29589891   -0.12069400
 H         -2.94507194    3.61863899    1.70282304
 H         -3.71382904    2.35405803    0.74838603
 O         -3.21447206    4.67467594   -1.22656298
 C         -3.52841997    3.43038607    0.79843599
 C         -2.73171091    3.85844493   -0.42611501
 O         -1.56792700    3.32758904   -0.55976701
 H         -4.47768688    3.96135902    0.85551298
