55
wb97x-d4 ma-def2-tzvp(-f) cpcm(dmso) E: -1285.242513734339, G: -1284.82199238
 C         -1.21341801   -1.15697598    1.72787595
 C         -1.18499398   -0.05435600    0.66905499
 C         -1.97637606   -0.43035501   -0.58716202
 O         -1.70167100    0.41908601   -1.68764699
 C         -1.61260498   -1.84017003   -1.03653300
 C         -1.67275906   -2.83423305    0.11444100
 C         -1.24464703   -4.23839617   -0.27571899
 O          0.06111400   -4.30385780   -0.84460199
 O         -0.80748802   -2.38460898    1.16286194
 O         -2.50144792   -2.28758407   -2.05239892
 O         -1.47476196    1.15683103    1.23922503
 O         -2.50452995   -1.21096504    2.26232004
 H         -2.70266008   -2.89627409    0.48416901
 H         -0.48471099   -0.94634402    2.51862693
 H         -0.05685400   -0.02914300    0.31034100
 H         -3.04460692   -0.40153101   -0.33193099
 H         -0.58603001   -1.81277895   -1.42209303
 C         -2.60121393   -2.07801199    3.39204407
 H         -1.77342498    1.84245801    0.55703598
 H         -1.22524703   -4.85197020    0.62750602
 H         -1.98808002   -4.65558910   -0.96003801
 H         -2.50668907   -1.61232901   -2.74271297
 H         -1.98186898    1.33435500   -1.46426201
 H         -0.00073300   -4.07918310   -1.77957404
 H         -1.87816894   -1.78499401    4.16110277
 H         -2.42544889   -3.11890602    3.10688901
 H         -3.61306810   -1.97367001    3.78202295
 C          2.79723811    2.37491798   -0.24451800
 C          1.35008502    1.80737996   -0.27258000
 C          3.77465606    1.20330405   -0.10233600
 C          3.47641206    0.16915700   -1.19438004
 C          2.05809689   -0.42503399   -0.94858497
 N          1.43711197    0.39281800    0.09877300
 H          2.91172290    3.06605411    0.59291399
 H          0.69853503    2.31193805    0.43967199
 H          4.80237722    1.55882299   -0.19459599
 H          3.51411891    0.63852602   -2.17931604
 H          2.09631896   -1.45392299   -0.59191900
 H          2.98186493    2.92574596   -1.16819799
 H          0.90607399    1.85997403   -1.26588905
 C          3.56485391    0.54990000    1.26693594
 H          4.21107721   -0.63737899   -1.17277801
 H          1.43437004   -0.37167799   -1.83985698
 C          2.05907512    0.19029200    1.41138697
 H          3.85063004    1.23129296    2.06986403
 H          4.17150879   -0.35356799    1.35370195
 H          1.54764402    0.83823597    2.12293291
 H          1.91574001   -0.85099602    1.69817698
 H         -2.52700496    4.48150587   -2.57563591
 H         -0.93436199    3.75067210   -2.77164292
 O         -2.26132393    2.79672503   -0.58991700
 C         -1.52243805    4.43290806   -2.15065289
 C         -1.57798004    3.87456799   -0.73767000
 O         -0.97268701    4.44745016    0.18321800
 H         -1.06132495    5.41988182   -2.16795111
