55
wb97x-d4 ma-def2-tzvp(-f) cpcm(dmso) E: -1285.247672558735, G: -1284.8265926800002
 C         -1.19743001   -1.20205498    1.45132005
 C         -1.08969796    0.00426900    0.51781899
 C         -1.83516300   -0.21351600   -0.80111903
 O         -1.54400206    0.77707601   -1.75913405
 C         -1.44150603   -1.55630302   -1.40414500
 C         -1.60076296   -2.67473888   -0.38418299
 C         -1.10516202   -4.00909996   -0.90429902
 O         -1.32630897   -5.05633402    0.03541600
 O         -0.80428898   -2.37530208    0.76974601
 O         -2.25541902   -1.85013402   -2.53196812
 O         -1.38195503    1.15592504    1.19490600
 O         -2.50726295   -1.27304697    1.93198001
 H         -2.65369892   -2.76391506   -0.09547100
 H         -0.48881999   -1.10238004    2.28227806
 H          0.05167500    0.02769100    0.21752299
 H         -2.91000009   -0.23121600   -0.57293999
 H         -0.38606900   -1.50506699   -1.70545805
 C         -2.66990399   -2.25796509    2.95262289
 H         -1.36676896    1.98405302    0.61161298
 H         -1.65358198   -4.27230406   -1.80885303
 H         -0.03908800   -3.92642689   -1.15045798
 H         -2.26534295   -1.05202401   -3.07709503
 H         -2.09696198    1.58830702   -1.59468806
 H         -0.87672198   -4.80933619    0.85294998
 H         -2.51901197   -3.26530194    2.55508590
 H         -3.68977094   -2.16131401    3.32305193
 H         -1.96289301   -2.08059096    3.77063894
 C          3.38814306    1.02126300   -1.36106396
 C          1.84811103    0.86030501   -1.21876395
 C          4.03090000    0.77986002    0.00809600
 C          3.80292797   -0.68173301    0.40898299
 C          2.28119111   -0.99369699    0.31311300
 N          1.60005498    0.28911701    0.11039600
 H          3.61125708    2.02627206   -1.72291994
 H          1.32598197    1.81443405   -1.27025795
 H          5.10008097    0.99447602   -0.03430200
 H          4.34839487   -1.35421705   -0.25509700
 H          1.89890301   -1.44557405    1.22692800
 H          3.77049994    0.30339500   -2.08954191
 H          1.43600297    0.18507700   -1.96640396
 C          3.35196590    1.68929601    1.03882897
 H          4.15239191   -0.85319602    1.42906201
 H          2.04145408   -1.63529301   -0.53380102
 C          1.86843598    1.24255204    1.18785298
 H          3.39553690    2.72982907    0.71136200
 H          3.84645700    1.61549103    2.00867009
 H          1.17654800    2.07806611    1.08711898
 H          1.68599200    0.73397499    2.13412094
 H         -3.18156791    5.52356911   -1.69437206
 H         -1.50330496    5.81304979   -1.16151595
 O         -1.32372606    3.46866298    0.07119500
 C         -2.44591093    5.31754923   -0.91769803
 C         -2.20647693    3.82526898   -0.76196498
 O         -2.88887811    3.02711606   -1.45892501
 H         -2.79545498    5.72614288    0.03376400
