55
wb97x-d4 ma-def2-tzvp(-f) cpcm(dmso) E: -1285.2416319009, G: -1284.82193985
 C         -1.12757397   -0.75036597    1.26377702
 C         -0.77697200    0.41090599    0.33097300
 C         -1.50394595    0.30180100   -1.00850201
 O         -1.02082098    1.22073996   -1.97225201
 C         -1.30869699   -1.09096706   -1.59264100
 C         -1.67856002   -2.16453695   -0.57509100
 C         -1.38330197   -3.56037307   -1.09187996
 O         -1.86332595   -4.57852316   -0.21780600
 O         -0.89800900   -1.97893095    0.61071903
 O         -2.12353897   -1.25609505   -2.74568391
 O         -0.86754298    1.61259902    0.98277497
 O         -2.45697308   -0.59434497    1.66928601
 H         -2.74565506   -2.08201289   -0.33630201
 H         -0.45941499   -0.75668597    2.13327003
 H          0.35822001    0.22120900    0.07739700
 H         -2.57591009    0.46188301   -0.82963902
 H         -0.24979199   -1.20861697   -1.86134100
 C         -2.84243298   -1.53278697    2.67331505
 H         -1.20078504    2.34829593    0.37407300
 H         -1.81440103   -3.66953897   -2.09067297
 H         -0.30095699   -3.69387388   -1.16278601
 H         -1.97036898   -0.48338601   -3.30511189
 H         -1.32072902    2.11626506   -1.70625305
 H         -2.82691598   -4.57570696   -0.25735301
 H         -2.15692592   -1.48312104    3.52661800
 H         -2.85322809   -2.55166411    2.27672505
 H         -3.84602404   -1.25564396    2.99396491
 C          3.84835792    1.21903098    1.11988795
 C          2.31111598    0.99606299    1.20080400
 C          4.41141319    0.31312001    0.01885000
 C          3.86298490    0.78083700   -1.33304405
 C          2.31282711    0.86563098   -1.23315001
 N          1.93226504    0.21301000    0.02402600
 H          4.29440117    0.97974002    2.08657908
 H          2.02482390    0.42574900    2.08421302
 H          5.50185585    0.35626799    0.01865300
 H          4.25901604    1.76348603   -1.59442699
 H          1.81841505    0.34595701   -2.05184507
 H          4.06222677    2.26555896    0.89457297
 H          1.75563097    1.93326998    1.18181503
 C          3.94023705   -1.12397897    0.27050900
 H          4.14603710    0.07854900   -2.11960697
 H          1.95665205    1.89416099   -1.19312096
 C          2.39359903   -1.17662001    0.10260400
 H          4.21435499   -1.44105399    1.27869403
 H          4.40011406   -1.81254804   -0.44014800
 H          1.90568602   -1.65428197    0.95058799
 H          2.09369111   -1.67937899   -0.81607503
 H         -3.79954410    2.34894490    0.82598799
 H         -4.68534803    3.89320707    0.80443603
 O         -1.76027000    3.41872096   -0.63464099
 C         -3.69774795    3.43583894    0.75993401
 C         -2.98856306    3.78671408   -0.54091197
 O         -3.60173106    4.38705301   -1.43779898
 H         -3.09792399    3.76043606    1.61303496
