55
wb97x-d4 ma-def2-tzvp(-f) cpcm(dmso) E: -1285.241334728303, G: -1284.8219282300001
 C         -1.12885904   -0.69916302    1.34923303
 C         -0.77345699    0.36488301    0.30749500
 C         -1.48661697    0.12978899   -1.02225900
 O         -0.96284002    0.93257201   -2.06699705
 C         -1.32663703   -1.31942797   -1.46049595
 C         -1.71183097   -2.27668691   -0.33861101
 C         -1.45144105   -3.72258496   -0.71853399
 O         -1.94752002   -4.64223003    0.25049800
 O         -0.91637897   -1.98829997    0.81740397
 O         -2.15305710   -1.58206999   -2.58731008
 O         -0.87395197    1.62419295    0.83636099
 O         -2.45456696   -0.48969400    1.74291396
 H         -2.77431893   -2.14711308   -0.10104600
 H         -0.46022600   -0.62830299    2.21462703
 H          0.36550799    0.16427200    0.07469900
 H         -2.55543995    0.33754799   -0.87792599
 H         -0.27402100   -1.49095094   -1.72075999
 C         -2.83352208   -1.29436004    2.85914493
 H         -1.19273996    2.29816389    0.15007199
 H         -1.89264798   -3.91629505   -1.69989002
 H         -0.37306899   -3.88738298   -0.78268403
 H         -1.97824502   -0.88225901   -3.22985506
 H         -1.25214005    1.85513496   -1.90441298
 H         -2.91109610   -4.62168503    0.21500900
 H         -3.84060788   -0.98822498    3.13990498
 H         -2.15053296   -1.12694204    3.69935608
 H         -2.83317494   -2.35606503    2.59757304
 C          3.92453694   -0.16679400   -1.33691800
 C          2.40348911   -0.46836901   -1.20176494
 C          4.40815878    0.48548001   -0.03677100
 C          3.97805095   -0.39298901    1.14284301
 C          2.42639089   -0.36208999    1.23429000
 N          1.93880200    0.24522801   -0.00777300
 H          4.09700823    0.50168902   -2.18271995
 H          1.83731902   -0.10779800   -2.05936694
 H          5.49405909    0.59284300   -0.05025300
 H          4.32182407   -1.41881800    0.99574602
 H          2.07662702    0.25214601    2.06372690
 H          4.45744610   -1.10021305   -1.52539897
 H          2.20627904   -1.52954805   -1.05344999
 C          3.74344802    1.85968006    0.10450600
 H          4.39879513   -0.02273000    2.07904792
 H          2.00108099   -1.36188805    1.31719697
 C          2.20832705    1.68184805   -0.07543800
 H          4.11177778    2.55118704   -0.65490299
 H          3.95900798    2.28482699    1.08677006
 H          1.86396897    2.03766799   -1.04573500
 H          1.63995397    2.17551708    0.71236300
 H         -4.65744781    3.88230801    0.37231699
 H         -3.09659195    3.76545906    1.23147500
 O         -1.70947695    3.26764202   -0.96500999
 C         -3.67718410    3.40753794    0.37820801
 C         -2.92413306    3.68573499   -0.91543901
 O         -3.49031997    4.28053999   -1.84621096
 H         -3.79775906    2.32707691    0.49515501
