55
wb97x-d4 ma-def2-tzvp(-f) cpcm(dmso) E: -1285.24287346512, G: -1284.8218453000002
 C         -1.11921203   -1.57853496    1.46256304
 C         -1.16265798   -0.21604399    0.76954800
 C         -2.02713609   -0.23744500   -0.49572301
 O         -1.85802102    0.90911299   -1.30869806
 C         -1.64008999   -1.43423498   -1.35411894
 C         -1.64991701   -2.72771001   -0.54921198
 C         -1.16236401   -3.92753100   -1.35286796
 O         -2.11735892   -4.35320807   -2.31773400
 O         -0.74466598   -2.58690310    0.54784697
 O         -2.54150009   -1.58407700   -2.44871807
 O         -1.43179798    0.76526201    1.68357301
 O         -2.37263298   -1.81295896    2.03401208
 H         -2.66263008   -2.92992902   -0.18338600
 H         -0.33816499   -1.58562100    2.23194909
 H         -0.05724800   -0.05619700    0.36949199
 H         -3.07538509   -0.34285599   -0.18376499
 H         -0.62192899   -1.27416599   -1.73184001
 C         -2.40206099   -2.98304510    2.85162592
 H         -1.66526902    1.64766705    1.24070895
 H         -0.20332700   -3.68377805   -1.82799006
 H         -1.00470603   -4.76312113   -0.66831601
 H         -2.49985909   -0.77540302   -2.97428894
 H         -2.06181407    1.71525300   -0.78871602
 H         -2.36719799   -3.57045603   -2.82948804
 H         -3.37173510   -2.99421501    3.34788799
 H         -1.60476804   -2.94517398    3.60210299
 H         -2.28930497   -3.88798308    2.24847102
 C          3.71593404   -0.41688401   -0.04435600
 C          2.22227907   -0.85157102   -0.01138000
 C          3.78080106    1.10937202   -0.17284399
 C          3.18451095    1.74169600    1.09009004
 C          1.76850295    1.13855195    1.32403004
 N          1.42614698    0.37331900    0.12313800
 H          4.21021414   -0.89712602   -0.89045101
 H          1.91460800   -1.34792197   -0.93102401
 H          4.81589413    1.43062198   -0.30136400
 H          3.80954289    1.53603697    1.96064603
 H          1.01374900    1.91238999    1.46506596
 H          4.21631098   -0.74087602    0.87047899
 H          2.00363708   -1.49859905    0.83691299
 C          2.94053507    1.53904498   -1.37910998
 H          3.11115503    2.82467198    0.97147399
 H          1.75252700    0.45143700    2.16983008
 C          1.45110404    1.19717598   -1.09144604
 H          3.27427793    1.01674604   -2.27798796
 H          3.03457093    2.61212492   -1.55380595
 H          0.99808502    0.62887901   -1.90117204
 H          0.85266298    2.08619690   -0.89983499
 H         -1.39284396    4.49735594   -1.55018604
 H         -0.60521799    5.69921923   -0.49055800
 O         -0.32383099    3.95335793    1.33444500
 C         -1.40050995    4.95769215   -0.55907798
 C         -1.24275696    3.88015389    0.50148702
 O         -2.10989904    2.93239498    0.46540099
 H         -2.36924410    5.44783688   -0.43332300
