55
wb97x-d4 ma-def2-tzvp(-f) cpcm(dmso) E: -1285.241578733961, G: -1284.82182175
 C         -1.13306606   -0.94039398    1.22065496
 C         -0.83428001    0.29336500    0.36928099
 C         -1.58096695    0.25658801   -0.96430600
 O         -1.13567305    1.24564397   -1.87540495
 C         -1.35822701   -1.08743203   -1.64613998
 C         -1.66077602   -2.24613595   -0.70184100
 C         -1.31116700   -3.58564305   -1.32432103
 O         -1.71494198   -4.68692780   -0.51497000
 O         -0.86744499   -2.11191607    0.48196000
 O         -2.19780493   -1.20392799   -2.78773093
 O         -0.95812798    1.43736899    1.11355102
 O         -2.46141195   -0.86116397    1.65009606
 H         -2.72578311   -2.23073006   -0.44112000
 H         -0.45389000   -0.98243600    2.08065009
 H          0.29900700    0.16279000    0.08489600
 H         -2.65322995    0.37760600   -0.75821102
 H         -0.30313700   -1.14618599   -1.94790399
 C         -2.79778695   -1.87581396    2.59608006
 H         -1.21818304    2.23413491    0.54684299
 H         -1.76353800   -3.64604211   -2.31782889
 H         -0.22589201   -3.65750790   -1.43058598
 H         -2.08014989   -0.39542601   -3.30318689
 H         -1.39387500    2.12555695   -1.52664196
 H         -2.67811704   -4.73280907   -0.53235000
 H         -3.80708599   -1.65911102    2.94427991
 H         -2.10374093   -1.85324705    3.44357491
 H         -2.77463698   -2.86714005    2.13540006
 C          3.94314504   -1.03375196    0.10081200
 C          2.39397812   -1.14298904   -0.01708700
 C          4.34489584    0.43946201   -0.03867600
 C          3.77034712    1.22435999    1.14620697
 C          2.24096394    0.94712001    1.22593403
 N          1.87511504    0.22752500    0.00640900
 H          4.40498877   -1.63597906   -0.68321502
 H          2.08047295   -1.60143805   -0.95411599
 H          5.43228197    0.53035802   -0.05663200
 H          4.23860884    0.91272801    2.08119106
 H          1.65601206    1.86520696    1.26934195
 H          4.26814985   -1.42413700    1.06711698
 H          1.95677996   -1.69005704    0.81656301
 C          3.74737191    0.99449599   -1.33509898
 H          3.94816709    2.29325891    1.01414502
 H          1.98253202    0.31437501    2.07459211
 C          2.19668198    0.97837102   -1.21091402
 H          4.05727720    0.38524300   -2.18644810
 H          4.08234119    2.01838899   -1.50884604
 H          1.72070396    0.48155501   -2.05421495
 H          1.78105295    1.97915196   -1.10215294
 H         -2.84139490    3.86047697    1.94490302
 H         -3.74048591    2.59722900    1.11006498
 O         -3.29101706    4.79621410   -1.00672400
 C         -3.50121498    3.66392994    1.09655499
 C         -2.78240108    3.99860096   -0.20307200
 O         -1.65415597    3.41321707   -0.39181900
 H         -4.41726923    4.24401283    1.20045805
