55
wb97x-d4 ma-def2-tzvp(-f) cpcm(dmso) E: -1285.244500563286, G: -1284.82179812
 C         -1.07981396   -1.36854899    1.37757897
 C         -0.93268198   -0.05193600    0.62318099
 C         -1.76749694   -0.00234100   -0.65898597
 O         -1.39983106    1.10451198   -1.45124996
 C         -1.56714904   -1.27567899   -1.47196400
 C         -1.63871098   -2.54057193   -0.61056399
 C         -1.16285706   -3.78026009   -1.36209798
 O         -1.95955706   -4.04653215   -2.51909089
 O         -0.76635599   -2.44260311    0.51656401
 O         -2.56799102   -1.30417800   -2.48329091
 O         -1.08521402    1.00269401    1.48162496
 O         -2.37984991   -1.44334805    1.88437998
 H         -2.67270708   -2.68641090   -0.27646801
 H         -0.35024300   -1.43123996    2.19300199
 H          0.18165900   -0.05978600    0.24650900
 H         -2.82382298    0.06274900   -0.36638001
 H         -0.57014298   -1.22740901   -1.93127596
 C         -2.57070994   -2.55438209    2.76037192
 H         -1.21939301    1.89516604    1.03028095
 H         -0.14193900   -3.61727190   -1.71566904
 H         -1.16538000   -4.63738680   -0.68302900
 H         -2.51080203   -2.17721796   -2.90154004
 H         -1.96635306    1.88684404   -1.21210098
 H         -2.78043890   -4.46473503   -2.23172092
 H         -2.50203609   -3.50088811    2.21715903
 H         -3.56781411   -2.45095205    3.18675900
 H         -1.82431102   -2.54121089    3.56220007
 C          3.33506608    2.04873705    0.07371200
 C          1.82084703    1.68392396    0.08441700
 C          4.14835215    0.75905502   -0.07503000
 C          3.69210792    0.02216700   -1.33872998
 C          2.19304705   -0.37097001   -1.17731702
 N          1.73333597    0.22326601    0.08015800
 H          3.59975791    2.55811810    1.00203001
 H          1.31716394    2.05034089    0.97818798
 H          5.21164322    0.99538702   -0.14524101
 H          3.81098008    0.66293800   -2.21426892
 H          2.05387306   -1.44942403   -1.10989797
 H          3.53502011    2.72751999   -0.75695503
 H          1.30065000    2.05098796   -0.79857498
 C          3.89024711   -0.13297100    1.14363098
 H          4.28721523   -0.87944400   -1.49292099
 H          1.57914400    0.02564600   -1.98461401
 C          2.35786390   -0.38564900    1.25634897
 H          4.24615908    0.34940201    2.05534601
 H          4.41245222   -1.08530104    1.03502405
 H          1.92837000    0.08247900    2.14187503
 H          2.11899090   -1.44870400    1.25427902
 H         -2.83421803    5.84621286   -0.79286200
 H         -2.00133991    5.92567921    0.78917903
 O         -1.41674602    3.46720505    0.81053102
 C         -2.71514392    5.37002277    0.18157101
 C         -2.28625798    3.92138696    0.01463300
 O         -2.83808708    3.24923110   -0.89933902
 H         -3.68855000    5.38567209    0.68063998
