55
wb97x-d4 ma-def2-tzvp(-f) cpcm(dmso) E: -1285.247677588323, G: -1284.8265670300002
 C         -1.21075106   -1.19756305    1.44474196
 C         -1.09839296    0.00465000    0.50667697
 C         -1.83474696   -0.22099601   -0.81619298
 O         -1.53965402    0.76512301   -1.77762604
 C         -1.43490696   -1.56581104   -1.41069901
 C         -1.59676099   -2.68003988   -0.38647100
 C         -1.09262204   -4.01513004   -0.89649701
 O         -1.31296206   -5.05739307    0.04896500
 O         -0.80901599   -2.37256598    0.77128899
 O         -2.24243402   -1.86701095   -2.54118991
 O         -1.39705598    1.15931904    1.17579496
 O         -2.52416492   -1.26993001    1.91518700
 H         -2.65122700   -2.77170801   -0.10424900
 H         -0.50900900   -1.09237802    2.28085089
 H          0.04545800    0.02792200    0.21516401
 H         -2.91093111   -0.23975299   -0.59445500
 H         -0.37806299   -1.51320398   -1.70688105
 C         -2.69227099   -2.25059891    2.93903899
 H         -1.37094903    1.98520303    0.58937502
 H         -1.63569701   -4.28652096   -1.80185103
 H         -0.02582500   -3.92892289   -1.13829803
 H         -2.25059199   -1.07204199   -3.09089994
 H         -2.08968401    1.57887697   -1.61691403
 H         -0.87049001   -4.80143976    0.86765099
 H         -2.53361797   -3.25918698    2.54773498
 H         -3.71591091   -2.15636206    3.29954004
 H         -1.99357605   -2.06636310    3.76265192
 C          3.39273906    1.03104198   -1.33023798
 C          1.85185802    0.86658901   -1.20177495
 C          4.02420712    0.78560400    0.04350500
 C          3.79492903   -0.67767102    0.43750200
 C          2.27454400   -0.99156803    0.32791299
 N          1.59333897    0.29096901    0.12345400
 H          3.61706591    2.03786993   -1.68624306
 H          1.32825804    1.81985104   -1.25496197
 H          5.09340906    1.00183904    0.01099300
 H          4.34698009   -1.34713697   -0.22417200
 H          1.88531196   -1.44680095    1.23709404
 H          3.78273606    0.31674299   -2.05816507
 H          1.44754398    0.19272199   -1.95488906
 C          3.33534098    1.69046402    1.07166696
 H          4.13608789   -0.85198897    1.45990503
 H          2.04273009   -1.63087499   -0.52292699
 C          1.85123801    1.24138904    1.20622003
 H          3.38046908    2.73225689    0.74843597
 H          3.82163191    1.61370206    2.04542208
 H          1.15911996    2.07626390    1.10205901
 H          1.66107297    0.72959203    2.14924502
 H         -2.75951290    5.73623419   -0.02402800
 H         -3.14170408    5.52095079   -1.75150704
 O         -2.87453294    3.02403212   -1.49084401
 C         -2.41073394    5.31522083   -0.97034198
 C         -2.18637705    3.82224703   -0.79967898
 O         -1.30937195    3.46504688    0.03942000
 H         -1.46252799    5.79924107   -1.21550298
