55
wb97x-d4 ma-def2-tzvp(-f) cpcm(dmso) E: -1285.241580932175, G: -1284.82160859
 C         -1.06675303   -1.29004502    1.44823396
 C         -0.92787898   -0.00883900    0.62814301
 C         -1.78987706   -0.03239600   -0.63487202
 O         -1.48075795    1.02095997   -1.52833295
 C         -1.55512702   -1.33336198   -1.38850796
 C         -1.73710299   -2.53233004   -0.46649900
 C         -1.47962999   -3.86592007   -1.14590502
 O         -0.19657101   -3.95870495   -1.76018596
 O         -0.82694203   -2.41655707    0.63340801
 O         -2.46656799   -1.46269906   -2.47225308
 O         -1.05546904    1.09687400    1.42723501
 O         -2.34091711   -1.30097306    2.02427197
 H         -2.76839995   -2.54656601   -0.09458500
 H         -0.29559901   -1.32859004    2.22658610
 H          0.18717100   -0.05044600    0.23710901
 H         -2.84281111    0.01841000   -0.32546699
 H         -0.52383602   -1.32550597   -1.76353705
 C         -2.51691604   -2.36325598    2.96166396
 H         -1.27418494    1.91979802    0.88886702
 H         -1.52268600   -4.64926815   -0.38612500
 H         -2.27349496   -4.04905081   -1.87479198
 H         -2.40944600   -0.64858502   -2.98852992
 H         -1.61133504    1.87777197   -1.06665099
 H         -0.24298200   -3.53928399   -2.62647200
 H         -1.73156595   -2.33357692    3.72504091
 H         -2.50033593   -3.33594394    2.46261406
 H         -3.48845911   -2.21066594    3.43030000
 C          3.89892507   -0.86572802   -0.26282901
 C          2.36276793   -1.11933196   -0.25075999
 C          4.15037298    0.64587301   -0.21019500
 C          3.64037395    1.18719304    1.12980604
 C          2.16098905    0.74068201    1.30978894
 N          1.72597694    0.17068200    0.03313900
 H          4.32484818   -1.29639006   -1.17047906
 H          1.99596000   -1.46861601   -1.21509099
 H          5.21692181    0.85112298   -0.31651199
 H          4.23412514    0.79580301    1.95746005
 H          1.50384200    1.57517803    1.55214798
 H          4.36121511   -1.35603702    0.59619099
 H          2.06886101   -1.82563996    0.52437198
 C          3.36775708    1.31739402   -1.34318602
 H          3.70594096    2.27673793    1.14775598
 H          2.05661988   -0.03310200    2.07004809
 C          1.84809601    1.11833799   -1.07995903
 H          3.63834095    0.87522298   -2.30396700
 H          3.58835101    2.38522506   -1.38582003
 H          1.33087695    0.69918799   -1.94084597
 H          1.35618103    2.04327393   -0.78093803
 H         -3.92938709    5.54309082    0.16001800
 H         -2.67450500    5.41476393   -1.09966099
 O         -1.57664597    3.24435806    0.03271300
 C         -2.91505909    5.20766497   -0.05369000
 C         -2.75936699    3.71788502    0.20846801
 O         -3.73994803    3.04035211    0.55933100
 H         -2.20395589    5.76356506    0.56193501
