55
wb97x-d4 ma-def2-tzvp(-f) cpcm(dmso) E: -1285.241152673281, G: -1284.8215812400001
 C         -1.10663795   -0.97137600    1.54390800
 C         -0.95357102    0.15379199    0.52013600
 C         -1.72723305   -0.13582100   -0.76634699
 O         -1.39220095    0.74000198   -1.82824600
 C         -1.41214705   -1.54174602   -1.26207697
 C         -1.56530201   -2.57829094   -0.15369301
 C         -1.10009503   -3.94949698   -0.61078602
 O         -1.32572496   -4.96238089    0.36606100
 O         -0.74978399   -2.20526004    0.96099001
 O         -2.28438711   -1.89424598   -2.32882500
 O         -1.17739904    1.36986101    1.11055803
 O         -2.42112494   -0.95884901    2.01813197
 H         -2.61666393   -2.62952900    0.15320700
 H         -0.39917800   -0.82778698    2.36946297
 H          0.18031301    0.09207000    0.21413399
 H         -2.79936504   -0.07135600   -0.53512299
 H         -0.36884999   -1.55303895   -1.60782003
 C         -2.62154794   -1.84987998    3.11500812
 H         -1.35910404    2.09981108    0.43160701
 H         -1.59787798   -4.19727612   -1.55224502
 H         -0.02150200   -3.91960096   -0.78448898
 H         -2.25540400   -1.16973197   -2.96700311
 H         -1.60259998    1.66218603   -1.57003200
 H         -2.27567911   -5.11928606    0.42069301
 H         -1.92129302   -1.62037098    3.92574596
 H         -2.49038410   -2.89049411    2.80587602
 H         -3.64362788   -1.69829702    3.46032095
 C          3.55539298    0.89388198   -1.39265394
 C          2.01002502    0.80358702   -1.23897696
 C          4.19416523    0.65766197   -0.02038900
 C          3.90827990   -0.78340501    0.41644299
 C          2.37556100   -1.03811395    0.32220700
 N          1.74871099    0.26826701    0.10143400
 H          3.81983089    1.87925994   -1.77966297
 H          1.53006697    1.77917600   -1.30480695
 H          5.27094698    0.82753098   -0.07133700
 H          4.42825317   -1.49398005   -0.22810701
 H          1.97484899   -1.46300805    1.24097598
 H          3.90168595    0.14268699   -2.10535407
 H          1.56164205    0.13249999   -1.96945798
 C          3.55646801    1.61824799    0.99021000
 H          4.24739122   -0.94225699    1.44205403
 H          2.11207294   -1.68057799   -0.51697600
 C          2.06000900    1.22641098    1.16193795
 H          3.63366795    2.64749098    0.63448203
 H          4.05486584    1.55301905    1.95869100
 H          1.39462698    2.08289504    1.05719399
 H          1.87086701    0.73658198    2.11688495
 H         -3.98212409    5.34910297   -1.45952904
 H         -3.25847507    4.14040422   -2.55595493
 O         -3.30008101    3.97369790    0.56612098
 C         -3.08351898    4.77552080   -1.68420899
 C         -2.66751695    3.91475606   -0.50121599
 O         -1.64119399    3.16637397   -0.69357300
 H         -2.26809502    5.45867682   -1.93558800
