55
wb97x-d4 ma-def2-tzvp(-f) cpcm(dmso) E: -1285.241499623976, G: -1284.821572
 C         -1.02139902   -1.44065797    1.30471098
 C         -0.88279498   -0.05383600    0.67751998
 C         -1.75840294    0.10366600   -0.57028699
 O         -1.44714606    1.25642395   -1.33094704
 C         -1.54114902   -1.08820295   -1.49165702
 C         -1.69355404   -2.41422296   -0.75653797
 C         -1.34672296   -3.61258197   -1.63257205
 O         -2.34952307   -3.87577105   -2.60711908
 O         -0.77598000   -2.44228601    0.33856899
 O         -2.47956705   -1.07210004   -2.56478000
 O         -1.00100195    0.91399300    1.63862896
 O         -2.29697490   -1.53948200    1.86618400
 H         -2.72181296   -2.52101111   -0.39418000
 H         -0.25156501   -1.58823001    2.07122207
 H          0.22409099   -0.04143400    0.27287400
 H         -2.80770206    0.12248900   -0.24607199
 H         -0.51884103   -1.02998304   -1.88926899
 C         -2.47327900   -2.72401404    2.64321995
 H         -1.18577302    1.82893598    1.24284995
 H         -0.37071100   -3.44732690   -2.10671496
 H         -1.27525997   -4.49844790   -0.99866301
 H         -2.35841489   -0.24388500   -3.04581809
 H         -1.58933997    2.05667090   -0.78107297
 H         -2.51986003   -3.04198098   -3.06820297
 H         -2.46295810   -3.61572790    2.01051807
 H         -3.44229293   -2.63642097    3.13316107
 H         -1.68464994   -2.80558991    3.39933610
 C          3.70013809    1.11220300    1.21725500
 C          2.20964599    0.69159299    1.37314796
 C          4.20939016    0.60449702   -0.13641800
 C          3.44682598    1.32560003   -1.25261796
 C          1.92154706    1.14560401   -1.00592101
 N          1.77613497    0.16831000    0.07768600
 H          4.27959824    0.68196601    2.03571796
 H          2.08151007   -0.10027100    2.11066198
 H          5.28022909    0.79342002   -0.22924100
 H          3.68629408    2.39016008   -1.25982106
 H          1.40487301    0.75993800   -1.88281202
 H          3.78766704    2.19895601    1.27101505
 H          1.56896901    1.53335202    1.63368499
 C          3.93065000   -0.89946997   -0.24070100
 H          3.71657205    0.90908200   -2.22502589
 H          1.44324994    2.06952691   -0.68366802
 C          2.38926411   -1.12422204   -0.24037500
 H          4.38097715   -1.42749095    0.60215598
 H          4.35111094   -1.30671895   -1.16159904
 H          2.08193207   -1.84622502    0.51466203
 H          2.01775694   -1.44034898   -1.21445000
 H         -3.45901299    4.44931984   -0.77698302
 H         -2.30409694    5.63137579   -0.16571701
 O         -1.50806499    3.18679190    0.53161198
 C         -3.08137488    4.92352581    0.13246199
 C         -2.47564697    3.86333895    1.03893697
 O         -2.91360092    3.70100498    2.18971992
 H         -3.88995194    5.45620012    0.63172901
