55
wb97x-d4 ma-def2-tzvp(-f) cpcm(dmso) E: -1285.242508159602, G: -1284.8214741600002
 C         -1.08579004   -1.12838995    1.21798897
 C         -0.78282899    0.13375600    0.40825200
 C         -1.60684896    0.21046101   -0.88016999
 O         -1.12277699    1.18789303   -1.78432500
 C         -1.57573104   -1.11713004   -1.62744498
 C         -1.88352799   -2.28422189   -0.70154500
 C         -1.70687401   -3.62624598   -1.38320005
 O         -2.06185889   -4.70206118   -0.52036798
 O         -0.96150303   -2.26876593    0.39532900
 O         -2.53650308   -1.11517799   -2.67539692
 O         -0.81049198    1.24220598    1.21088898
 O         -2.36620903   -0.99377102    1.76206994
 H         -2.90847111   -2.19814110   -0.32607901
 H         -0.34556600   -1.26425898    2.01443505
 H          0.33992499   -0.01286700    0.04854800
 H         -2.64564395    0.42858401   -0.59637201
 H         -0.56718898   -1.25245202   -2.04045606
 C         -2.69179606   -2.03917193    2.67833710
 H         -1.06888103    2.07708597    0.69629502
 H         -2.36364889   -3.68332601   -2.25126195
 H         -0.66762203   -3.72512007   -1.72108698
 H         -2.38221908   -0.31748900   -3.19763398
 H         -1.29054999    2.07301092   -1.39449894
 H         -1.51163197   -4.63049603    0.26932901
 H         -3.65094900   -1.77817500    3.12399006
 H         -1.92939496   -2.11156607    3.46171308
 H         -2.77706790   -3.00075698    2.16488004
 C          3.95212293    0.22418299    1.16458404
 C          2.40720797    0.06703900    1.25660503
 C          4.30652714    0.71375901   -0.24330600
 C          3.49565506    1.97829795   -0.54216599
 C          1.99004602    1.59521401   -0.59630698
 N          1.87581003    0.21963100   -0.10157700
 H          4.43370199   -0.73493099    1.36521995
 H          2.12218595   -0.91795999    1.62491000
 H          5.37463522    0.92842698   -0.30763200
 H          3.66485500    2.72744894    0.23393001
 H          1.59472501    1.61406100   -1.60976005
 H          4.28705311    0.93823600    1.91861606
 H          1.94955695    0.83503300    1.87930000
 C          3.92661500   -0.37231001   -1.25678897
 H          3.78871489    2.40924001   -1.50090504
 H          1.38064396    2.23671603    0.03965700
 C          2.43607593   -0.76312703   -1.03515100
 H          4.55178213   -1.25723004   -1.12699604
 H          4.06532001   -0.00331900   -2.27490807
 H          2.33058691   -1.74894202   -0.58358300
 H          1.86251295   -0.72322398   -1.96010303
 H         -4.20694923    4.16761398    1.43317103
 H         -2.63145804    3.75751495    2.16464496
 O         -3.08646107    4.71310091   -0.77950501
 C         -3.30027890    3.57466197    1.32028699
 C         -2.58597112    3.90450501    0.01751400
 O         -1.46820605    3.30139804   -0.18219900
 H         -3.55536890    2.51154399    1.33023596
