55
wb97x-d4 ma-def2-tzvp(-f) cpcm(dmso) E: -1285.241696769143, G: -1284.82146467
 C         -1.10124099   -0.60458398    1.49008703
 C         -0.83274102    0.37973401    0.34954599
 C         -1.57613695    0.00210700   -0.93271399
 O         -1.11911094    0.72222197   -2.06343198
 C         -1.35221303   -1.47142696   -1.23774302
 C         -1.65482605   -2.34988189   -0.02980200
 C         -1.31231403   -3.81549692   -0.27315900
 O         -2.22875690   -4.44043398   -1.16431797
 O         -0.83867502   -1.92650998    1.06463802
 O         -2.18852806   -1.89483595   -2.31207895
 O         -0.97798300    1.67174804    0.78187299
 O         -2.42064095   -0.42886001    1.91297996
 H         -2.71542501   -2.26711798    0.23183900
 H         -0.40440801   -0.42750201    2.31779695
 H          0.30548599    0.20377301    0.09956300
 H         -2.64840603    0.17578100   -0.76899999
 H         -0.29754999   -1.60944903   -1.51063395
 C         -2.72524309   -1.16220999    3.09929395
 H         -1.24203098    2.29716110    0.03077400
 H         -0.28375000   -3.89068794   -0.64899701
 H         -1.37131405   -4.35057688    0.67650801
 H         -1.96977496   -1.35623395   -3.08281589
 H         -1.34973896    1.66717994   -1.94250000
 H         -2.29440093   -3.87157798   -1.94502604
 H         -3.73555899   -0.87980801    3.39269805
 H         -2.02318811   -0.90201002    3.89904594
 H         -2.68486691   -2.23956394    2.91712499
 C          3.76387191    1.51553798    0.88975698
 C          2.24233603    1.23371804    1.05463505
 C          4.35003424    0.46232501   -0.05814000
 C          3.75686193    0.67569798   -1.45463502
 C          2.20701194    0.71759301   -1.32817197
 N          1.87954295    0.25834101    0.02561400
 H          4.24230623    1.46843898    1.86932898
 H          2.00883698    0.79453301    2.02457690
 H          5.43712091    0.55169302   -0.09213700
 H          4.10628223    1.61510503   -1.88603604
 H          1.71576405    0.05769900   -2.04086995
 H          3.91682100    2.51706100    0.48288700
 H          1.63698304    2.12800598    0.90809298
 C          3.95027304   -0.93129897    0.44025701
 H          4.05405712   -0.13687600   -2.12067294
 H          1.81052196    1.72602797   -1.43991494
 C          2.40624094   -1.07936704    0.31120801
 H          4.25016594   -1.06122100    1.48204696
 H          4.43402576   -1.70881999   -0.15320800
 H          1.95219302   -1.44032001    1.23252594
 H          2.12020993   -1.73331594   -0.51169997
 H         -4.66721296    4.03552723   -0.17647301
 H         -3.22199011    3.84826112    0.85522699
 O         -3.22289991    4.36959505   -2.23490500
 C         -3.72196007    3.50819612   -0.05474000
 C         -2.81288099    3.72716403   -1.25566006
 O         -1.63707304    3.21205211   -1.17941296
 H         -3.91410804    2.43770003    0.05897600
