55
wb97x-d4 ma-def2-tzvp(-f) cpcm(dmso) E: -1285.245735105945, G: -1284.8265447800002
 C         -1.16399300   -1.23012805    1.54082596
 C         -0.99451202   -0.03304700    0.61084902
 C         -1.76382506   -0.17053799   -0.70663297
 O         -1.33829606    0.80313498   -1.63079703
 C         -1.54464996   -1.55550396   -1.31314194
 C         -1.70459700   -2.66819000   -0.27682999
 C         -1.31289303   -4.03562689   -0.80568099
 O          0.04200000   -4.08730507   -1.24380696
 O         -0.85524702   -2.42082191    0.85121000
 O         -2.40754795   -1.77838898   -2.42186689
 O         -1.19009304    1.13233399    1.30276203
 O         -2.47187805   -1.22123694    2.03457594
 H         -2.75153899   -2.71328211    0.04796500
 H         -0.44530499   -1.17901099    2.36684394
 H          0.13153900   -0.07939300    0.28040099
 H         -2.83304501   -0.04940600   -0.47773200
 H         -0.53115100   -1.59794796   -1.71707201
 C         -2.68472791   -2.19568992    3.05588102
 H         -1.27884102    1.95147705    0.72057599
 H         -1.49216199   -4.77847004   -0.02037200
 H         -1.93466997   -4.28131390   -1.66677797
 H         -3.32090592   -1.68501902   -2.12132812
 H         -1.90377498    1.61719799   -1.53585100
 H          0.60037202   -3.85902405   -0.49053100
 H         -1.95351696   -2.07034898    3.86211705
 H         -2.61047292   -3.21000290    2.65423894
 H         -3.68909192   -2.03050590    3.44418907
 C          3.59637809   -0.05128000   -1.39586902
 C          2.12215304   -0.48708501   -1.14493597
 C          4.06366491    0.80803102   -0.21589901
 C          3.85981607    0.01919200    1.08188701
 C          2.33543205   -0.23322500    1.27251995
 N          1.67050803    0.22697400    0.05186800
 H          3.65813398    0.51672798   -2.32592511
 H          1.46976495   -0.21141200   -1.97199702
 H          5.11795187    1.06389594   -0.33530200
 H          4.38767290   -0.93493700    1.03233302
 H          1.92602706    0.33363900    2.10843611
 H          4.22204781   -0.93956900   -1.49625599
 H          2.03485703   -1.55544603   -0.95007998
 C          3.21777010    2.08414197   -0.15976700
 H          4.24274397    0.57738400    1.93771601
 H          2.10995102   -1.29101503    1.40475202
 C          1.71475005    1.68123198   -0.10368800
 H          3.39005303    2.70063806   -1.04346395
 H          3.47755194    2.67185998    0.72264302
 H          1.18265605    1.93298101   -1.01919198
 H          1.20200098    2.13021588    0.74595499
 H         -3.22171307    5.50551987    0.25091800
 H         -3.36326790    5.45319414   -1.52381003
 O         -2.78681707    2.99448109   -1.45828104
 C         -2.70365310    5.25730991   -0.67918903
 C         -2.27641392    3.79951406   -0.63267100
 O         -1.42732704    3.47722197    0.24621101
 H         -1.81987000    5.89587212   -0.74292701
