55
wb97x-d4 ma-def2-tzvp(-f) cpcm(dmso) E: -1285.241958939211, G: -1284.8211282000002
 C         -1.13072002   -0.63625598    1.45886397
 C         -0.84419698    0.41365200    0.38247600
 C         -1.64818895    0.15617400   -0.89090300
 O         -1.22788501    0.96164399   -1.97854698
 C         -1.46331501   -1.29041100   -1.32219005
 C         -1.75301802   -2.25239396   -0.17686400
 C         -1.50005198   -3.70656109   -0.53772002
 O         -0.17486300   -3.95791602   -0.99921799
 O         -0.91729599   -1.93116200    0.94021499
 O         -2.33646894   -1.61163998   -2.39733601
 O         -0.91027403    1.67842495    0.90407997
 O         -2.43963504   -0.44488201    1.91142702
 H         -2.80769897   -2.16059995    0.10872800
 H         -0.41943699   -0.53611702    2.28711295
 H          0.27682900    0.19708900    0.08831300
 H         -2.70886493    0.33277401   -0.66769397
 H         -0.41966200   -1.41401398   -1.63750601
 C         -2.75162911   -1.23717594    3.05665708
 H         -1.20035303    2.36176610    0.21602200
 H         -1.63907695   -4.31152916    0.36065999
 H         -2.23736596   -4.01868916   -1.28211904
 H         -2.21547389   -0.93061900   -3.07145905
 H         -1.45105505    1.89351296   -1.77585697
 H         -0.12544399   -3.72150803   -1.93206799
 H         -2.73384690   -2.30330896    2.81428599
 H         -3.75449705   -0.95223701    3.37259412
 H         -2.04003096   -1.03614998    3.86499596
 C          3.81614494    1.25252998    0.89046103
 C          2.28737211    1.03125703    1.07210302
 C          4.32408094    0.26777700   -0.16925199
 C          3.70563197    0.63951498   -1.52084696
 C          2.16329002    0.73944598   -1.34556603
 N          1.84875703    0.17318501   -0.02943900
 H          4.31542206    1.08850002    1.84679794
 H          2.05488992    0.51724601    2.00454402
 H          5.41297388    0.30889100   -0.22846501
 H          4.08870697    1.59885001   -1.87257802
 H          1.62426996    0.16962700   -2.10039306
 H          4.00990486    2.27996206    0.57623702
 H          1.72622001    1.96415603    1.02454305
 C          3.86846209   -1.14586496    0.20966500
 H          3.94638491   -0.11879200   -2.26864100
 H          1.81205499    1.77065396   -1.35455596
 C          2.31631494   -1.20928800    0.11662500
 H          4.18931293   -1.38712895    1.22506797
 H          4.29671383   -1.88611901   -0.46813199
 H          1.86830401   -1.63209498    1.01428199
 H          1.97629201   -1.77025199   -0.75257403
 H         -4.63824177    4.04772997    0.36304200
 H         -3.16135192    3.71043897    1.30542803
 O         -3.24924302    4.75905800   -1.63153195
 C         -3.68785810    3.51571894    0.36806399
 C         -2.81755590    3.93697405   -0.80788600
 O         -1.65275502    3.39688492   -0.87851501
 H         -3.87098408    2.43926001    0.31456900
