55
wb97x-d4 ma-def2-tzvp(-f) cpcm(dmso) E: -1285.242360983563, G: -1284.82107229
 C         -1.19946098   -1.12289298    1.75990903
 C         -1.16951501   -0.05980800    0.66034400
 C         -1.90011895   -0.49558899   -0.61494201
 O         -1.57460904    0.31127301   -1.73227096
 C         -1.51096296   -1.92084706   -0.98557198
 C         -1.61423695   -2.86577201    0.20457201
 C         -1.11933696   -4.27185297   -0.11288700
 O         -2.01967812   -4.98211908   -0.95500499
 O         -0.77265799   -2.36874604    1.24810302
 O         -2.35330892   -2.41640592   -2.02400303
 O         -1.51573706    1.16058898    1.17612302
 O         -2.49472499   -1.17395401    2.27997804
 H         -2.65280104   -2.92201710    0.54747802
 H         -0.48109600   -0.87556702    2.54955792
 H         -0.03035700   -0.00774300    0.33430001
 H         -2.97935891   -0.46357301   -0.41138399
 H         -0.46830001   -1.91600597   -1.32690203
 C         -2.59448910   -2.00394702    3.43758893
 H         -1.79506099    1.81413102    0.45659700
 H         -0.12065200   -4.21399593   -0.56426197
 H         -1.04360902   -4.83249187    0.82078201
 H         -2.24103808   -1.84296703   -2.79238796
 H         -1.87793398    1.23118496   -1.55967498
 H         -2.20783401   -4.40874290   -1.71203196
 H         -1.88039100   -1.67924798    4.20222616
 H         -2.40783310   -3.05202007    3.18835998
 H         -3.61043096   -1.89470696    3.81520295
 C          2.74930406    2.48693991   -0.19135000
 C          1.31890798    1.87984705   -0.22741900
 C          3.75899911    1.33854902   -0.09039000
 C          3.47179699    0.32395700   -1.20369196
 C          2.07776499   -0.31909201   -0.94671202
 N          1.44509900    0.46244800    0.12124000
 H          2.85089302    3.15643597    0.66510701
 H          0.65481102    2.35518503    0.49298301
 H          4.77587509    1.72282898   -0.18698800
 H          3.47680902    0.81936997   -2.17657590
 H          2.15599799   -1.35081398   -0.60492498
 H          2.91134405    3.06925297   -1.09986305
 H          0.87356001    1.93475997   -1.21976101
 C          3.58338094    0.64761102    1.26527703
 H          4.23032284   -0.46034700   -1.21667302
 H          1.43825996   -0.27504599   -1.82729995
 C          2.08731794    0.25563401    1.42392302
 H          3.86831903    1.31461298    2.08050108
 H          4.20889521   -0.24547499    1.32054102
 H          1.57180405    0.88475198    2.14941907
 H          1.96713996   -0.79158902    1.69978595
 H         -0.54010499    3.56144309   -2.78103709
 H         -0.94845802    5.24683619   -2.39653301
 O         -2.23192096    2.71002007   -0.75860000
 C         -1.30282795    4.21746588   -2.34964800
 C         -1.54340804    3.78407598   -0.91281903
 O         -1.06227398    4.44205093    0.02376100
 H         -2.21207690    4.10211515   -2.94204998
