55
wb97x-d4 ma-def2-tzvp(-f) cpcm(dmso) E: -1285.241304891696, G: -1284.82100304
 C         -1.17231596   -1.30578899    1.51173198
 C         -0.97886300   -0.13957199    0.53783298
 C         -1.71370995   -0.36250299   -0.78137499
 O         -1.34493697    0.57584703   -1.76641202
 C         -1.39162099   -1.74876297   -1.32543802
 C         -1.63692200   -2.81948209   -0.26816899
 C         -1.22874403   -4.19179487   -0.75322199
 O         -1.68323600   -5.16514206    0.18668200
 O         -0.84601903   -2.52098894    0.89088601
 O         -2.20295501   -2.02504396   -2.45966291
 O         -1.22837102    1.04464805    1.17973495
 O         -2.50283694   -1.33478904    1.96982098
 H         -2.69831204   -2.83325791    0.00149900
 H         -0.48407200   -1.20387995    2.35596991
 H          0.16314200   -0.16792300    0.25042099
 H         -2.79195499   -0.30704200   -0.57799202
 H         -0.33150101   -1.77409303   -1.61020899
 C         -2.66855192   -0.90276402    3.31906700
 H         -1.33581805    1.83526504    0.56250203
 H         -1.67849505   -4.36403179   -1.73497903
 H         -0.13721400   -4.22609615   -0.85268700
 H         -2.15814400   -1.23897302   -3.02074695
 H         -1.93882203    1.37579095   -1.70195699
 H         -1.42178702   -6.03409004   -0.13723201
 H         -3.71620488   -1.06285298    3.57337999
 H         -2.42692494    0.15824699    3.42328906
 H         -2.03681707   -1.49107099    3.99326491
 C          3.17933393    2.08374405   -0.28137100
 C          1.69436896    1.61676598   -0.24873300
 C          4.08068323    0.86732799   -0.05052400
 C          3.77091193   -0.19470400   -1.11091197
 C          2.28719997   -0.64364201   -0.95345801
 N          1.69920599    0.19381900    0.09500200
 H          3.34870505    2.83357191    0.49349800
 H          1.11636996    2.14478397    0.50833899
 H          5.12930489    1.16322899   -0.11618800
 H          3.92618799    0.21205799   -2.11173701
 H          2.20237589   -1.68370295   -0.64032501
 H          3.39170289    2.54023290   -1.24954700
 H          1.20428205    1.72329402   -1.21474004
 C          3.78782511    0.28697500    1.33657396
 H          4.42495203   -1.05957305   -0.98857802
 H          1.71741498   -0.49162200   -1.86903000
 C          2.27320910   -0.06579800    1.41687000
 H          4.03385687    1.01065004    2.11532307
 H          4.38329506   -0.61202800    1.50569797
 H          1.74447203    0.55770302    2.13742805
 H          2.11091995   -1.11628604    1.65640604
 H         -3.69691896    5.11524105   -1.63186395
 H         -1.97388005    5.52024221   -1.71931398
 O         -1.51211298    3.32835698    0.00376200
 C         -2.74345803    5.03727102   -1.10964501
 C         -2.34764600    3.58397102   -0.90821397
 O         -2.84974098    2.71868110   -1.67739499
 H         -2.79080796    5.55957794   -0.15332501
