55
wb97x-d4 ma-def2-tzvp(-f) cpcm(dmso) E: -1285.244332300359, G: -1284.82095995
 C         -1.02532995   -1.36014998    1.43737698
 C         -0.91444099   -0.05647000    0.65113097
 C         -1.73319697   -0.05221400   -0.64365298
 O         -1.36770904    1.03627706   -1.45843899
 C         -1.50452399   -1.35136199   -1.41060603
 C         -1.61986005   -2.58134508   -0.50789201
 C         -1.22396898   -3.86859989   -1.22251403
 O         -2.18782210   -4.26854801   -2.18963909
 O         -0.72117901   -2.45359707    0.59687799
 O         -2.38681006   -1.46251798   -2.52803612
 O         -1.10359800    1.01347101    1.48161805
 O         -2.30985689   -1.44024098    1.98125398
 H         -2.65052199   -2.67635798   -0.14623401
 H         -0.27291799   -1.39148796    2.23384809
 H          0.20027100   -0.04615800    0.27823099
 H         -2.79507303    0.00994900   -0.36284599
 H         -0.49743000   -1.33055699   -1.83697498
 C         -2.46188211   -2.53552103    2.88453603
 H         -1.25792003    1.89002395    1.00549495
 H         -0.23597600   -3.73826408   -1.68302202
 H         -1.15620506   -4.67065620   -0.48491201
 H         -3.29043889   -1.30840099   -2.22118306
 H         -1.96003401    1.81210804   -1.25913095
 H         -2.37053704   -3.48981810   -2.73582792
 H         -3.44622111   -2.43315411    3.33977509
 H         -1.69101799   -2.49910402    3.66220999
 H         -2.39994597   -3.49192405    2.35823202
 C          3.97510409   -0.59612399    0.57462901
 C          2.45820498   -0.77626300    0.86808503
 C          4.16576385    0.72737998   -0.17407100
 C          3.46370506    1.84022796    0.61383897
 C          1.93040001    1.58447397    0.55778903
 N          1.75035596    0.22018300    0.05916900
 H          4.33905983   -1.43001902   -0.02907000
 H          2.09933209   -1.76519203    0.58493298
 H          5.22854805    0.95205200   -0.27784801
 H          3.80494094    1.84318101    1.65093303
 H          1.42441905    2.25957203   -0.13154000
 H          4.52284479   -0.59317499    1.51827002
 H          2.21785212   -0.58654201    1.91387403
 C          3.51135612    0.61206198   -1.55604804
 H          3.67599893    2.81951189    0.18200999
 H          1.46416998    1.65705001    1.54002595
 C          2.05361795    0.09970000   -1.37042606
 H          4.05747700   -0.08996700   -2.18816710
 H          3.50386405    1.58410394   -2.05333090
 H          1.95031500   -0.94959098   -1.64507794
 H          1.33089602    0.69471997   -1.92648602
 H         -3.54072309    5.56722307   -0.73724401
 H         -1.99768806    5.95605421    0.07180700
 O         -2.88106799    3.14287210   -1.00565696
 C         -2.85946894    5.28509903    0.06470200
 C         -2.38497996    3.84905005   -0.08641800
 O         -1.51303697    3.44463205    0.73483402
 H         -3.36712098    5.39232922    1.02680802
