55
wb97x-d4 ma-def2-tzvp(-f) cpcm(dmso) E: -1285.240587001449, G: -1284.8208103700001
 C         -1.06340599   -0.75708699    1.65667999
 C         -0.84063298    0.24436399    0.52144098
 C         -1.62787902   -0.12625800   -0.73456699
 O         -1.21038902    0.60440201   -1.87557805
 C         -1.43663800   -1.59836400   -1.07593906
 C         -1.66131103   -2.49110198    0.13892400
 C         -1.32568002   -3.93353510   -0.16683900
 O         -1.74603403   -4.74687099    0.92791700
 O         -0.79910398   -2.06579208    1.20062304
 O         -2.35054588   -1.98448205   -2.09493208
 O         -0.98097599    1.53024602    0.97255099
 O         -2.37189889   -0.60042101    2.12314510
 H         -2.70701504   -2.42072201    0.45688099
 H         -0.34801799   -0.58443201    2.46831012
 H          0.28965500    0.08753300    0.22492599
 H         -2.69234705    0.05254100   -0.53072202
 H         -0.40507799   -1.73720598   -1.42552602
 C         -2.62725592   -1.34609401    3.31314993
 H         -1.28206599    2.16432905    0.24181300
 H         -1.84135103   -4.22641182   -1.08559203
 H         -0.24404199   -4.02221680   -0.32446900
 H         -2.26563811   -1.33773696   -2.80741596
 H         -1.46380603    1.54411805   -1.74747801
 H         -1.53289998   -5.66216707    0.71487498
 H         -3.63837099   -1.09437299    3.63098097
 H         -1.91493797   -1.06745303    4.09752893
 H         -2.55944204   -2.42123008    3.12618494
 C          3.50008392    1.97906995   -0.49314499
 C          1.98224998    1.70767200   -0.26801801
 C          4.28381491    0.71666402   -0.11923700
 C          3.88102102   -0.42430800   -1.05938900
 C          2.33326101   -0.58716798   -1.01342106
 N          1.84771395    0.28738299    0.05738600
 H          3.81210995    2.82174897    0.12580900
 H          1.58121705    2.28065300    0.56661099
 H          5.35567904    0.90612501   -0.19982600
 H          4.18913078   -0.20785300   -2.08348799
 H          2.03577805   -1.60914505   -0.78114098
 H          3.67550492    2.23958611   -1.53856695
 H          1.39234996    1.90816903   -1.16148400
 C          3.92723393    0.32394600    1.31752706
 H          4.35944080   -1.35487604   -0.74819201
 H          1.85877800   -0.27170300   -1.94172299
 C          2.41653490   -0.04832000    1.36531401
 H          4.12503719    1.15426505    1.99795306
 H          4.51934385   -0.53281701    1.64314604
 H          1.88260901    0.52283800    2.12460208
 H          2.26015997   -1.11336696    1.53320003
 H         -2.81177998    4.89476204   -2.57328296
 H         -4.47238588    4.59184599   -1.99555004
 O         -1.74583399    3.06305790   -0.96450901
 C         -3.49239802    4.14569187   -2.16136289
 C         -2.91363502    3.59160709   -0.86871600
 O         -3.56073093    3.67105508    0.18797199
 H         -3.57517290    3.33982706   -2.89533997
