55
wb97x-d4 ma-def2-tzvp(-f) cpcm(dmso) E: -1285.241808345315, G: -1284.8206843300002
 C         -1.06715596   -0.49330300    1.45859802
 C         -0.79317302    0.46303201    0.29582700
 C         -1.55242503    0.06461200   -0.97016603
 O         -1.11128294    0.76814598   -2.11692691
 C         -1.33655703   -1.41518199   -1.24966896
 C         -1.63678598   -2.26812005   -0.02255600
 C         -1.29804802   -3.73916602   -0.23730300
 O         -2.21399093   -4.37858486   -1.11847305
 O         -0.81629401   -1.82617295    1.06130600
 O         -2.18242693   -1.85342896   -2.31010389
 O         -0.91274798    1.76809096    0.69501197
 O         -2.38486004   -0.29617599    1.87645698
 H         -2.69638896   -2.17663407    0.24023899
 H         -0.36893800   -0.30404499    2.28241897
 H          0.34237200    0.26177901    0.04558800
 H         -2.62239194    0.24226300   -0.79640901
 H         -0.28490999   -1.56516004   -1.52738297
 C         -2.69634390   -0.99254602    3.08283091
 H         -1.27463305    2.35714293   -0.04342600
 H         -0.26870501   -3.82385707   -0.60912001
 H         -1.36046195   -4.25601816    0.72217703
 H         -1.97906995   -1.31545603   -3.08565903
 H         -1.41823101    1.69641900   -2.03151989
 H         -2.27776408   -3.82452202   -1.90984297
 H         -3.70449400   -0.69326198    3.36686802
 H         -1.99283195   -0.71513802    3.87545800
 H         -2.66491103   -2.07499194    2.93160701
 C          3.83049297    0.51314700   -1.47983503
 C          2.28233504    0.62703401   -1.38279998
 C          4.39345407    0.34973100   -0.06410000
 C          3.92792010   -0.99801600    0.49855801
 C          2.38205600   -1.08847797    0.35026899
 N          1.91442001    0.25265300   -0.01345100
 H          4.22654486    1.41241300   -1.95425701
 H          1.93206406    1.64439201   -1.55270398
 H          5.48371410    0.39250800   -0.08412400
 H          4.38727617   -1.82488704   -0.04552500
 H          1.89812398   -1.38254499    1.28004503
 H          4.10180712   -0.34625500   -2.09631300
 H          1.77534497   -0.04803700   -2.07010293
 C          3.83767104    1.47422194    0.81805801
 H          4.20619011   -1.08556199    1.55075204
 H          2.08186698   -1.77231896   -0.44273400
 C          2.30344200    1.26582801    0.96914399
 H          4.04004383    2.44620299    0.36392099
 H          4.29802322    1.45769095    1.80729496
 H          1.73960400    2.17563200    0.76443899
 H          2.03582001    0.89026600    1.95686495
 H         -4.81675577    3.82717395    0.10444500
 H         -3.21877503    3.92755294    0.89797801
 O         -1.88142598    3.17842293   -1.24024105
 C         -3.81249499    3.40710902    0.14345500
 C         -3.12771893    3.49441099   -1.21323299
 O         -3.77480292    3.84342504   -2.21317792
 H         -3.87278795    2.35656404    0.44154799
