55
wb97x-d4 ma-def2-tzvp(-f) cpcm(dmso) E: -1285.241438018717, G: -1284.8205121600001
 C         -1.14172304   -1.05792499    1.18243802
 C         -0.76920903    0.20854101    0.41298601
 C         -1.51849699    0.31775901   -0.91544598
 O         -0.96879703    1.30506098   -1.77091503
 C         -1.45855403   -0.99787700   -1.68186998
 C         -1.81266499   -2.18961501   -0.79919499
 C         -1.58349299   -3.50429392   -1.52214301
 O         -2.03779006   -4.62847614   -0.77362001
 O         -0.97128201   -2.18997407    0.35887900
 O         -2.36858296   -0.96675998   -2.77417898
 O         -0.81890899    1.30601096    1.23146796
 O         -2.45608211   -0.91198802    1.63731003
 H         -2.86372495   -2.11695194   -0.49644199
 H         -0.46103099   -1.20916402    2.02791595
 H          0.36259601    0.04390900    0.10568800
 H         -2.56934190    0.54482800   -0.68960398
 H         -0.43285501   -1.13068104   -2.05095601
 C         -2.85318089   -1.95393097    2.52837706
 H         -1.06300998    2.14507198    0.72236800
 H         -2.07320309   -3.46288109   -2.49874496
 H         -0.51079297   -3.64474106   -1.67644000
 H         -2.18484211   -0.15900700   -3.27079201
 H         -1.17408001    2.18500710   -1.38335800
 H         -3.00167608   -4.60422993   -0.75481200
 H         -2.90299392   -2.91637301    2.01184011
 H         -3.84198499   -1.68857801    2.90086699
 H         -2.15189600   -2.02715492    3.36694598
 C          3.98133397   -0.38411799    1.15053105
 C          2.42960405   -0.41760099    1.23563004
 C          4.37949705    0.51161200   -0.02704800
 C          3.67096591    1.86234403    0.12196600
 C          2.14224195    1.63506806   -0.04772600
 N          1.91779101    0.18866400    0.00215900
 H          4.36703396   -1.39504802    1.00471902
 H          2.04741406   -1.43610501    1.30001104
 H          5.46127176    0.65455198   -0.04216700
 H          3.88039708    2.29272699    1.10327494
 H          1.77730799    1.99224198   -1.00930095
 H          4.38399220    0.00340600    2.08770704
 H          2.04998708    0.16695100    2.07347107
 C          3.91622996   -0.15113500   -1.32964897
 H          4.01130295    2.56683493   -0.63868898
 H          1.56571901    2.09812403    0.75283301
 C          2.40328097   -0.49341500   -1.20225298
 H          4.47559214   -1.06900001   -1.51782000
 H          4.07388496    0.52344298   -2.17351007
 H          2.23037195   -1.56140602   -1.07375598
 H          1.83055305   -0.13138799   -2.05491495
 H         -3.56267810    2.51916909    1.35763299
 H         -4.31857014    4.13106203    1.31737995
 O         -3.23830891    4.49607086   -0.95200199
 C         -3.37345695    3.59218001    1.26373804
 C         -2.66546893    3.85434890   -0.05750900
 O         -1.47952104    3.36973405   -0.16967900
 H         -2.73017192    3.88510609    2.09640598
