55
wb97x-d4 ma-def2-tzvp(-f) cpcm(dmso) E: -1285.242895348551, G: -1284.8204889
 C         -1.26662099   -1.13118005    1.61797905
 C         -1.23726201   -0.03826500    0.55176502
 C         -1.95405900   -0.43938401   -0.74229199
 O         -1.68644094    0.46362200   -1.79727805
 C         -1.50514102   -1.82863295   -1.18520296
 C         -1.58651304   -2.82237601   -0.02530800
 C         -1.05201399   -4.19904089   -0.37367699
 O          0.31297001   -4.17583084   -0.77979302
 O         -0.80277097   -2.34793997    1.07614696
 O         -2.25935102   -2.28830194   -2.29921603
 O         -1.60038304    1.16490197    1.09590101
 O         -2.56918406   -1.22950602    2.11502409
 H         -2.63403511   -2.93345904    0.28205299
 H         -0.56558502   -0.88872999    2.42546892
 H         -0.09359200    0.02384600    0.24854399
 H         -3.03253698   -0.47041100   -0.52285302
 H         -0.46982500   -1.76807296   -1.52988195
 C         -2.66554093   -2.09570289    3.24579310
 H         -1.79760206    1.86071706    0.38852301
 H         -1.18460596   -4.85489082    0.49382600
 H         -1.62454700   -4.60542107   -1.20752299
 H         -3.19655204   -2.26514912   -2.06649590
 H         -1.97401202    1.35979700   -1.52898204
 H          0.83592600   -3.88033509   -0.02512100
 H         -2.45201111   -3.13146210    2.96807408
 H         -3.68838406   -2.02071095    3.61307693
 H         -1.96879196   -1.77891898    4.02969885
 C          3.04838490    1.45537198   -1.35397303
 C          1.58789802    0.92689598   -1.26203895
 C          3.80717397    1.02403498   -0.09450100
 C          3.68385911   -0.49606299    0.05773700
 C          2.18858290   -0.84979099    0.30514601
 N          1.41803503    0.37823501    0.08790800
 H          3.04252410    2.54426503   -1.43679905
 H          0.85685700    1.72171605   -1.39497697
 H          4.85804701    1.30822897   -0.17407501
 H          4.03822613   -0.99561203   -0.84601700
 H          2.00713897   -1.18113101    1.32683802
 H          3.52334094    1.04877198   -2.24846101
 H          1.39250600    0.12575801   -1.97305095
 C          3.17007089    1.70305204    1.12282300
 H          4.28121614   -0.85089999    0.89925897
 H          1.82781994   -1.60624802   -0.38965401
 C          1.64662802    1.38355696    1.12823296
 H          3.30985498    2.78439593    1.07800996
 H          3.62968898    1.33758998    2.04331708
 H          1.04057395    2.25380993    0.88090599
 H          1.32192600    0.96672201    2.08150601
 H         -1.12366796    5.74010897   -1.91195595
 H         -2.77479696    5.44681501   -1.30318999
 O         -2.27818489    2.90445805   -0.70463097
 C         -1.90389299    4.99111986   -1.78044796
 C         -1.41385806    3.82640910   -0.93461400
 O         -0.24397200    3.80981207   -0.51423001
 H         -2.22351408    4.61945391   -2.75731611
