55
wb97x-d4 ma-def2-tzvp(-f) cpcm(dmso) E: -1285.241302900695, G: -1284.8203929200001
 C         -1.09770894   -1.07639205    1.58542597
 C         -0.85104197    0.12988999    0.67799801
 C         -1.66222095    0.05639500   -0.61725199
 O         -1.22204196    0.99136400   -1.58719099
 C         -1.51781797   -1.32071698   -1.25180995
 C         -1.78752506   -2.42917991   -0.24334200
 C         -1.58926904   -3.81928992   -0.80642903
 O         -0.27608901   -3.93933702   -1.35180604
 O         -0.89707100   -2.27401090    0.86833298
 O         -2.43196392   -1.46455097   -2.33189392
 O         -0.94026500    1.29633296    1.39297903
 O         -2.39278793   -0.97106802    2.10359907
 H         -2.82582593   -2.36015511    0.09997000
 H         -0.36380300   -1.10013795    2.39917207
 H          0.26527601    0.00392500    0.32764599
 H         -2.71863508    0.22623999   -0.36851001
 H         -0.49098700   -1.42497897   -1.61678302
 C         -2.66689992   -1.94998002    3.10579705
 H         -1.19812596    2.08294201    0.81091499
 H         -1.73979902   -4.54324579    0.00193100
 H         -2.34656906   -3.99180889   -1.57712305
 H         -2.30816102   -0.69751400   -2.90550303
 H         -1.44108903    1.89406502   -1.26644194
 H         -0.18434000   -4.83058500   -1.70559597
 H         -1.91512001   -1.90290105    3.90138006
 H         -2.68046999   -2.95692396    2.67979288
 H         -3.64845610   -1.71454704    3.51558709
 C          3.68044996   -0.10817200   -1.43895805
 C          2.19799995   -0.49025100   -1.15633905
 C          4.24478388    0.60648698   -0.20609000
 C          4.00148201   -0.26982901    1.02758801
 C          2.46675706   -0.36875701    1.26414895
 N          1.81612504    0.19795400    0.08012600
 H          3.73382401    0.54487401   -2.31221700
 H          1.53374505   -0.15859200   -1.95285106
 H          5.31346178    0.78737199   -0.33324900
 H          4.41724396   -1.26715696    0.87146002
 H          2.14522696    0.21120000    2.12902498
 H          4.24802589   -1.01465595   -1.65556204
 H          2.07075596   -1.56025803   -0.99583399
 C          3.50477695    1.93542600   -0.02024400
 H          4.47342587    0.16294999    1.91103601
 H          2.13657188   -1.40139103    1.37450802
 C          1.97505999    1.64967597   -0.01103000
 H          3.73241997    2.62464690   -0.83503300
 H          3.80310297    2.40593004    0.91859102
 H          1.48880005    1.97857296   -0.92819703
 H          1.47635102    2.10313392    0.84529299
 H         -2.67212200    5.25707817   -1.54893303
 H         -4.29607391    5.02499819   -0.84772199
 O         -3.26719999    3.86776495    1.17069602
 C         -3.37089896    4.52634478   -1.13457298
 C         -2.72728992    3.82739592    0.05313500
 O         -1.62089097    3.22230411   -0.19286899
 H         -3.57710195    3.79111409   -1.91675103
