55
wb97x-d4 ma-def2-tzvp(-f) cpcm(dmso) E: -1285.241657052428, G: -1284.8202773300002
 C         -1.11008203   -0.68558300    1.44986200
 C         -0.79338199    0.34619901    0.36429700
 C         -1.52328706    0.05475000   -0.94740301
 O         -1.01782596    0.82025898   -2.02711797
 C         -1.34639096   -1.40909004   -1.32222402
 C         -1.69717097   -2.33296394   -0.16183700
 C         -1.40437603   -3.79658508   -0.47188699
 O         -2.33089900   -4.34375620   -1.40323102
 O         -0.88169199   -1.99234498    0.96235400
 O         -2.17976904   -1.74876297   -2.42804790
 O         -0.90891099    1.61979401    0.85334599
 O         -2.43178797   -0.48796999    1.85667896
 H         -2.75737190   -2.22384596    0.09086500
 H         -0.42724401   -0.57161701    2.29913306
 H          0.34486100    0.15594199    0.11932000
 H         -2.59206200    0.25799599   -0.79787201
 H         -0.29526001   -1.57620096   -1.58775604
 C         -2.77627492   -1.24696100    3.01552892
 H         -1.22708297    2.27063298    0.14410999
 H         -0.37419501   -3.89162111   -0.83847702
 H         -1.49585295   -4.37422609    0.44981700
 H         -1.93086398   -1.17913103   -3.16685605
 H         -1.30481303    1.74811304   -1.89120901
 H         -2.36566710   -3.73606610   -2.15609002
 H         -3.78741693   -0.95297402    3.29440188
 H         -2.08745289   -1.02148902    3.83698702
 H         -2.75208592   -2.31964111    2.80488896
 C          3.87000990   -0.10994000   -1.38198602
 C          2.35639691   -0.43135500   -1.21654201
 C          4.38201809    0.50397301   -0.07404300
 C          3.98497891   -0.41104001    1.08932900
 C          2.43582511   -0.39139101    1.21979702
 N          1.91543198    0.24684300    0.00676000
 H          4.01398516    0.58824998   -2.20899510
 H          1.76383400   -0.05682400   -2.04996800
 H          5.46666002    0.61828899   -0.11021300
 H          4.33053684   -1.43015695    0.90460497
 H          2.10374308    0.19826400    2.07392597
 H          4.40600920   -1.03121698   -1.61600196
 H          2.17516899   -1.49817598   -1.08966005
 C          3.71292806    1.86909997    0.12418300
 H          4.42663193   -0.06512700    2.02526808
 H          2.01688504   -1.39505196    1.28573596
 C          2.17523909    1.68646502   -0.02722600
 H          4.05994987    2.58596611   -0.62164301
 H          3.94762206    2.26566911    1.11402297
 H          1.80734503    2.06688404   -0.97952598
 H          1.62140799    2.15454602    0.78612399
 H         -3.09895110    3.79613090    1.17455101
 H         -3.87846708    2.37733102    0.47936100
 O         -1.74077702    3.19825792   -1.00325000
 C         -3.70194793    3.44680595    0.33354500
 C         -2.94431090    3.64877892   -0.97120398
 O         -3.49680495    4.21562004   -1.92705905
 H         -4.65699100    3.97025108    0.31852901
