55
wb97x-d4 ma-def2-tzvp(-f) cpcm(dmso) E: -1285.241449169402, G: -1284.8200758
 C         -0.99927998   -1.44580400    1.32076705
 C         -0.80463099   -0.07699300    0.66666901
 C         -1.68302405    0.10656700   -0.57535303
 O         -1.28598797    1.21328199   -1.36643302
 C         -1.58659804   -1.12042403   -1.47027194
 C         -1.79315197   -2.41453505   -0.69413000
 C         -1.56553495   -3.65302896   -1.55260503
 O         -2.63440609   -3.87499499   -2.46526194
 O         -0.83394402   -2.47300696    0.36414099
 O         -2.56726789   -1.06640399   -2.50415611
 O         -0.86698300    0.91388798    1.60866201
 O         -2.26478291   -1.46335101    1.91213906
 H         -2.80935311   -2.44512296   -0.28701299
 H         -0.22364999   -1.62672198    2.07339311
 H          0.29887500   -0.11015100    0.24800999
 H         -2.72239804    0.22277500   -0.24030399
 H         -0.58339202   -1.14451897   -1.91391397
 C         -2.49619603   -2.63278389    2.69736195
 H         -1.11542201    1.81352198    1.20557296
 H         -0.60857302   -3.56045794   -2.08195210
 H         -1.51494098   -4.52602386   -0.89917803
 H         -2.39961195   -0.27098000   -3.02479196
 H         -1.44866502    2.03407693   -0.85479099
 H         -2.77312708   -3.04445696   -2.94271207
 H         -3.43898511   -2.47760510    3.22059011
 H         -1.68922198   -2.77013898    3.42551494
 H         -2.57066011   -3.52304411    2.06680012
 C          4.02116203   -0.30860201    1.01290798
 C          2.48642206   -0.49676800    1.18675399
 C          4.26132011    0.67238998   -0.13931000
 C          3.47201490    1.95620096    0.13776600
 C          1.95338500    1.61843002    0.09787900
 N          1.84075904    0.15970799    0.04647200
 H          4.48912001   -1.27075303    0.79580098
 H          2.20282292   -1.54882205    1.17916405
 H          5.32577896    0.89807200   -0.22358100
 H          3.73972392    2.36016393    1.11597598
 H          1.46521199    2.01978207   -0.78860301
 H          4.44496489    0.07546100    1.94213700
 H          2.11364102   -0.02578900    2.09610295
 C          3.75192595    0.04645600   -1.44252396
 H          3.68811607    2.71559596   -0.61551702
 H          1.43149304    1.96885395    0.98804098
 C          2.27259493   -0.39496601   -1.23983705
 H          4.35154009   -0.82391602   -1.71397698
 H          3.81276798    0.77044100   -2.25737405
 H          2.16718602   -1.47817695   -1.18942297
 H          1.62058306   -0.00178100   -2.01862597
 H         -3.28109503    4.46493006   -0.93629402
 H         -2.36822605    5.64363098    0.00344300
 O         -3.09287691    3.44700003    2.02676511
 C         -3.10721803    4.84120607    0.07452500
 C         -2.54840493    3.72795296    0.94675398
 O         -1.49959600    3.14107800    0.49134901
 H         -4.03420782    5.23865080    0.48647600
