55
wb97x-d4 ma-def2-tzvp(-f) cpcm(dmso) E: -1285.240077278402, G: -1284.82006129
 C         -1.16157305   -1.31701303    1.42500806
 C         -0.95552599   -0.11697800    0.50233400
 C         -1.65274501   -0.27728000   -0.84908003
 O         -1.23306596    0.72148597   -1.74908602
 C         -1.34764802   -1.64941800   -1.44815099
 C         -1.51030803   -2.77549195   -0.42029300
 C         -0.98919201   -4.09273005   -0.96609098
 O         -1.27341604   -5.19881296   -0.11352800
 O         -0.76643300   -2.49169707    0.76971298
 O         -2.15330505   -1.89943600   -2.59386396
 O         -1.22727299    1.04279304    1.18284798
 O         -2.51053691   -1.40731001    1.81917703
 H         -2.57390189   -2.88037205   -0.17094800
 H         -0.51688403   -1.22773099    2.30473089
 H          0.18682200   -0.13339300    0.24245900
 H         -2.73586893   -0.20783301   -0.67017901
 H         -0.31522000   -1.64627397   -1.80976200
 C         -2.75867891   -0.98200101    3.15824389
 H         -1.33740103    1.85219598    0.59502703
 H         -1.40689099   -4.25202799   -1.96362805
 H          0.09912200   -4.03635311   -1.04865897
 H         -3.08095193   -1.83080900   -2.33316994
 H         -1.85610795    1.49548101   -1.68100202
 H         -2.22440004   -5.35757780   -0.13581000
 H         -3.80827594   -1.19106805    3.36429501
 H         -2.57148910    0.08885600    3.27098107
 H         -2.13162708   -1.53988194    3.86218691
 C          3.30138612    2.04378796    0.03213400
 C          1.79695106    1.64073896    0.00184300
 C          4.15063095    0.76861101    0.01893300
 C          3.76620197   -0.07640400   -1.19998598
 C          2.27367306   -0.50239801   -1.06251299
 N          1.74689496    0.18379100    0.11906200
 H          3.50966692    2.62805796    0.93021297
 H          1.24142504    2.06813192    0.83576602
 H          5.21005106    1.02731895   -0.02670200
 H          3.89980888    0.49930000   -2.11760998
 H          2.16414809   -1.57465100   -0.90403700
 H          3.52392697    2.66365290   -0.83787203
 H          1.31288803    1.91607594   -0.93366200
 C          3.86265397   -0.03500700    1.29099000
 H          4.39160585   -0.96836698   -1.26225805
 H          1.68217301   -0.19665700   -1.92426002
 C          2.33084106   -0.30654800    1.36845303
 H          4.17695522    0.51926601    2.17678308
 H          4.40316296   -0.98304802    1.27114296
 H          1.85998201    0.23199300    2.19053197
 H          2.10769796   -1.36960196    1.45356596
 H         -2.92539191    5.55538082    0.08216100
 H         -3.92963195    5.09193897   -1.32555103
 O         -1.57166100    3.38134789    0.11426700
 C         -2.92987990    5.06474018   -0.89160401
 C         -2.42497802    3.63518691   -0.78154999
 O         -2.86348510    2.78840804   -1.60833001
 H         -2.25492501    5.61563396   -1.55366004
