55
wb97x-d4 ma-def2-tzvp(-f) cpcm(dmso) E: -1285.246971735338, G: -1284.82636043
 C         -1.14170098   -1.07622004    1.64958799
 C         -1.01871395    0.00636100    0.57670599
 C         -1.78336096   -0.34630099   -0.69987398
 O         -1.44658399    0.50592798   -1.77105796
 C         -1.45996499   -1.77094197   -1.13371003
 C         -1.61810005   -2.74859500    0.02120600
 C         -1.16886199   -4.14988184   -0.34080401
 O         -1.36577702   -5.05925608    0.73741102
 O         -0.78035003   -2.32980299    1.10698605
 O         -2.32606101   -2.17239094   -2.18725204
 O         -1.27131605    1.23834300    1.11443901
 O         -2.45028090   -1.05997002    2.13849306
 H         -2.66336608   -2.77199697    0.34689400
 H         -0.42841199   -0.89733201    2.46199989
 H          0.11562100   -0.03104600    0.25571901
 H         -2.85663199   -0.28227800   -0.47428301
 H         -0.41721600   -1.80013800   -1.47585201
 C         -2.62967205   -1.91062999    3.27064705
 H         -1.35382295    1.98144996    0.43310499
 H         -1.76063097   -4.51636696   -1.17973495
 H         -0.11336600   -4.12408400   -0.63959599
 H         -2.31186700   -1.46089005   -2.84124899
 H         -2.02513289    1.31764495   -1.74793398
 H         -0.88982302   -4.70700884    1.49957597
 H         -3.65111399   -1.75959206    3.61797905
 H         -1.92630196   -1.64065099    4.06592512
 H         -2.48722005   -2.96060705    3.00067711
 C          3.11939692    2.17225194   -0.45598701
 C          1.63811100    1.74731100   -0.22990400
 C          4.02041292    0.95854503   -0.20965999
 C          3.66893411   -0.13941000   -1.21913505
 C          2.15424299   -0.47954801   -1.08383501
 N          1.64104998    0.30834201    0.04007300
 H          3.37325406    2.98336697    0.22832900
 H          1.19611204    2.24766207    0.63026899
 H          5.06807423    1.24418902   -0.32031900
 H          3.87450409    0.19535400   -2.23710608
 H          1.98982406   -1.53359997   -0.86353499
 H          3.24374294    2.53559494   -1.47765303
 H          1.01679301    1.92435396   -1.10586798
 C          3.77070498    0.43136001    1.20707595
 H          4.26422882   -1.03410101   -1.02793705
 H          1.58914006   -0.20049299   -1.97232997
 C          2.28685308   -0.02848300    1.31064999
 H          3.96635103    1.21311402    1.94320905
 H          4.42699289   -0.41302899    1.42397499
 H          1.75332403    0.48871699    2.10797405
 H          2.19956398   -1.10488105    1.45452905
 H         -1.74069095    5.38005114   -2.24040794
 H         -2.57258391    5.70515013   -0.71707702
 O         -1.47303402    3.41467309   -0.25003201
 C         -2.56008506    5.05440521   -1.59245503
 C         -2.29854012    3.61396098   -1.18551099
 O         -2.89134789    2.69752908   -1.81859803
 H         -3.49530196    5.14387178   -2.14473104
