55
wb97x-d4 ma-def2-tzvp(-f) cpcm(dmso) E: -1285.241843234362, G: -1284.81972492
 C         -1.08098996   -1.65096700    1.32963204
 C         -1.04101503   -0.23879500    0.74314499
 C         -1.92523396   -0.08984800   -0.49629200
 O         -1.63546896    1.08673096   -1.23297799
 C         -1.71744800   -1.25509703   -1.45628297
 C         -1.79637694   -2.59330797   -0.73304498
 C         -1.47508705   -3.75552511   -1.65403998
 O         -1.68004096   -5.02029610   -1.03009403
 O         -0.82767200   -2.60349488    0.32086301
 O         -2.71039891   -1.22773302   -2.47423601
 O         -1.21359396    0.69410902    1.73240805
 O         -2.32350111   -1.83507705    1.94406497
 H         -2.80190492   -2.72491097   -0.31659999
 H         -0.27331001   -1.78183496    2.05920601
 H          0.05562000   -0.13312501    0.32598799
 H         -2.97298193   -0.09208800   -0.16579799
 H         -0.71962798   -1.16175902   -1.90402603
 C         -2.40392208   -3.06157303    2.67028594
 H         -1.52836800    1.58439398    1.36915100
 H         -2.07712793   -3.66663694   -2.56234002
 H         -0.41885000   -3.71196389   -1.93091202
 H         -2.70797706   -0.33548501   -2.84405994
 H         -1.87601399    1.86636198   -0.68468601
 H         -2.62908006   -5.14750481   -0.91479701
 H         -2.39706111   -3.92100000    1.99428296
 H         -3.34278893   -3.03916311    3.22235203
 H         -1.56650198   -3.14549303    3.37195110
 C          3.86238503   -0.20890100    0.52610499
 C          2.38549089   -0.55934298    0.86507201
 C          3.87438297    1.09458995   -0.28068501
 C          3.06213689    2.14998007    0.47926399
 C          1.57102501    1.70829296    0.48501399
 N          1.54301500    0.31334499    0.04130400
 H          4.31290722   -1.01714599   -0.05347700
 H          2.14466190   -1.59465301    0.62507498
 H          4.89971781    1.43967795   -0.42403299
 H          3.42920899    2.24573493    1.50307906
 H          0.96654099    2.28890800   -0.21039000
 H          4.42609978   -0.09926200    1.45381999
 H          2.14590502   -0.36250699    1.90984094
 C          3.20845604    0.83911800   -1.63766301
 H          3.14085102    3.12543392   -0.00328500
 H          1.12719405    1.76271296    1.47837400
 C          1.82271194    0.17468700   -1.39143300
 H          3.81858611    0.17421700   -2.25098991
 H          3.07908297    1.77863097   -2.17876291
 H          1.82878399   -0.88881999   -1.62905502
 H          1.02590501    0.66882002   -1.94498599
 H         -1.18726099    4.64003611   -1.12398005
 H         -1.00117302    5.93573713    0.08730900
 O         -2.08559704    2.88777900    0.68738300
 C         -1.55895901    5.03755283   -0.17573300
 C         -1.42559505    3.96942711    0.89809799
 O         -0.71601802    4.17159891    1.89703906
 H         -2.61372805    5.28543091   -0.31544700
