55
wb97x-d4 ma-def2-tzvp(-f) cpcm(dmso) E: -1285.241527197536, G: -1284.81821904
 C         -1.17312801   -0.50258601    1.56630301
 C         -0.79665703    0.32818100    0.33956400
 C         -1.46415401   -0.17562599   -0.94176501
 O         -0.87101698    0.36754501   -2.10857391
 C         -1.32738602   -1.68777704   -1.04941201
 C         -1.74748302   -2.38718390    0.23760700
 C         -1.49187601   -3.88947296    0.19968800
 O         -2.39061689   -4.56689882   -0.67053998
 O         -0.95706201   -1.87591100    1.31377006
 O         -2.13465905   -2.18794703   -2.11288309
 O         -0.92063898    1.66705894    0.60131800
 O         -2.50325799   -0.21906701    1.88362205
 H         -2.81089592   -2.20728397    0.42847899
 H         -0.51824498   -0.25987601    2.41063595
 H          0.35190099    0.10373200    0.17510700
 H         -2.53076291    0.08184700   -0.89439303
 H         -0.27436501   -1.92793500   -1.24122298
 C         -2.90672207   -0.77355599    3.13568997
 H         -1.14751399    2.19528294   -0.23324201
 H         -0.44921401   -4.07295895   -0.08999000
 H         -1.64734006   -4.29474401    1.20144105
 H         -1.83516598   -1.76901996   -2.92946410
 H         -1.08988798    1.32292497   -2.14106798
 H         -2.37965894   -4.09070110   -1.51349294
 H         -3.91152000   -0.40273699    3.33449197
 H         -2.22943211   -0.44733199    3.93265104
 H         -2.92170811   -1.86619103    3.09648609
 C          3.59555602    1.77488995   -0.84981197
 C          2.07107806    1.46287405   -0.78911901
 C          4.34968519    0.68051302   -0.08726900
 C          4.00250483   -0.68536901   -0.68980801
 C          2.47241211   -0.93059403   -0.53285998
 N          1.90636206    0.28228599    0.06190800
 H          3.79292107    2.75126004   -0.40381700
 H          1.50047398    2.27873206   -0.34604600
 H          5.42523813    0.85374302   -0.15431100
 H          4.27119684   -0.71254200   -1.74732602
 H          2.25265193   -1.76550603    0.13168600
 H          3.91432595    1.80657899   -1.89303803
 H          1.65932000    1.22429597   -1.76756203
 C          3.90636802    0.70735103    1.37932599
 H          4.55084085   -1.47837496   -0.17866300
 H          1.98726702   -1.09389806   -1.49410999
 C          2.36263895    0.50791699    1.43511295
 H          4.16697884    1.66138196    1.84030294
 H          4.39897394   -0.08884100    1.94017303
 H          1.84792602    1.38980198    1.81567597
 H          2.08533001   -0.36071101    2.03155804
 H         -3.76055002    2.28203797   -0.25703701
 H         -4.59688997    3.74720311   -0.83016598
 O         -1.49022901    2.93112993   -1.57216299
 C         -3.62755394    3.31785297   -0.58021897
 C         -2.68766999    3.35465288   -1.77668905
 O         -3.09439611    3.77391601   -2.87132311
 H         -3.18429303    3.86563993    0.25479099
