55
wb97x-d4 ma-def2-tzvp(-f) cpcm(dmso) E: -1285.24782917526, G: -1284.82760862
 C         -1.18884206   -1.45415604    1.42241800
 C         -1.12351704   -0.14120300    0.64687800
 C         -1.97325301   -0.19179100   -0.62632102
 O         -1.77501297    0.92049497   -1.46684098
 C         -1.61598694   -1.43551099   -1.42834198
 C         -1.70538700   -2.68478894   -0.56081802
 C         -1.25299001   -3.94920611   -1.26794004
 O          0.09299600   -3.87284589   -1.72696900
 O         -0.84934402   -2.53425694    0.57919902
 O         -2.50440001   -1.59067702   -2.52775788
 O         -1.33616602    0.92329901    1.47718096
 O         -2.47114110   -1.57998896    1.96507096
 H         -2.74295306   -2.82580090   -0.23630001
 H         -0.43418801   -1.46393096    2.21755505
 H         -0.00211800   -0.09225900    0.26397601
 H         -3.02474499   -0.25959599   -0.31352800
 H         -0.58706498   -1.32724905   -1.79245698
 C         -2.58822608   -2.68041706    2.86714196
 H         -1.24280500    1.81768799    1.00498998
 H         -1.37962401   -4.79584980   -0.58392400
 H         -1.87947500   -4.11477709   -2.14493489
 H         -2.55001307   -0.73111802   -2.96677303
 H         -2.24063206    1.71694899   -1.09861398
 H          0.65633303   -3.74217105   -0.95465797
 H         -2.48848009   -3.63341594    2.34066010
 H         -3.57853198   -2.61422706    3.31621194
 H         -1.82428801   -2.61644912    3.64983392
 C          3.74770808   -0.63382399   -0.27220199
 C          2.23326898   -0.99081898   -0.27140099
 C          3.89348793    0.89041501   -0.18747699
 C          3.35828304    1.36368704    1.16865301
 C          1.92340398    0.79337400    1.35618305
 N          1.50891495    0.23966600    0.06472500
 H          4.20381880   -1.01586103   -1.18695605
 H          1.88979697   -1.32366502   -1.25007296
 H          4.94181824    1.17301095   -0.29756299
 H          3.99246597    1.00873494    1.98259699
 H          1.20907104    1.56403601    1.64331901
 H          4.24126816   -1.10873103    0.57811701
 H          1.98886299   -1.74792504    0.47271800
 C          3.05337501    1.52939999   -1.29809403
 H          3.33410001    2.45455909    1.20600104
 H          1.89638603   -0.01515200    2.08639407
 C          1.55396998    1.23424101   -1.01453996
 H          3.33634710    1.11883605   -2.26941299
 H          3.20717311    2.60939407   -1.32752001
 H          1.04453194    0.81641299   -1.88085401
 H          1.01269996    2.11471891   -0.67077601
 H         -1.49251401    5.81633806    0.71028501
 H         -3.05533409    5.70430613   -0.15658800
 O         -1.01165104    3.31681609    0.59928399
 C         -2.02239490    5.35618305   -0.12375200
 C         -1.97256601    3.84068298   -0.03630500
 O         -2.87275696    3.18344212   -0.62559003
 H         -1.53367901    5.66097021   -1.05411303
