55
wb97x-d4 ma-def2-tzvp(-f) cpcm(dmso) E: -1285.248002208114, G: -1284.8262783700002
 C         -1.09703898   -1.50177503    1.31008005
 C         -1.02793503   -0.12321100    0.65649903
 C         -1.95098603   -0.02553300   -0.56092298
 O         -1.74622595    1.14964294   -1.31072795
 C         -1.69863105   -1.20608902   -1.48952305
 C         -1.78523397   -2.52557802   -0.73397499
 C         -1.43573999   -3.73409700   -1.58345902
 O         -0.12097200   -3.66607809   -2.12740493
 O         -0.85064799   -2.50954795    0.35191700
 O         -2.66287804   -1.22562504   -2.53412104
 O         -1.15428495    0.85832602    1.59916198
 O         -2.34928298   -1.63478398    1.91726696
 H         -2.80406308   -2.65851498   -0.35194799
 H         -0.29819700   -1.61166298    2.05289888
 H          0.06506300   -0.07672600    0.21295200
 H         -2.98554492   -0.07608000   -0.19388600
 H         -0.68988800   -1.10454202   -1.90938103
 C         -2.45606804   -2.80860496    2.72244191
 H         -1.17423606    1.79549003    1.21474898
 H         -1.55348003   -4.63620281   -0.97273201
 H         -2.12573195   -3.79251695   -2.42577410
 H         -2.70130706   -0.32656300   -2.88641191
 H         -2.22836304    1.91021597   -0.88728499
 H          0.49762401   -3.64029098   -1.38747895
 H         -1.64235997   -2.84472203    3.45523310
 H         -2.43040490   -3.71213293    2.10722709
 H         -3.41240406   -2.74795198    3.24068999
 C          3.53220010    1.17677104    1.05392694
 C          2.06848907    0.69128501    1.26092005
 C          4.01094103    0.69826502   -0.32116801
 C          3.18631101    1.40254295   -1.40337801
 C          1.67799103    1.18172705   -1.09561205
 N          1.60074401    0.17888400   -0.02769000
 H          4.15912819    0.76731998    1.84768605
 H          2.00509310   -0.12193300    1.98359096
 H          5.07118177    0.92287803   -0.44916099
 H          3.39652705    2.47320509   -1.41610503
 H          1.13164198    0.80348903   -1.95786595
 H          3.57568192    2.26604104    1.11194503
 H          1.40681005    1.50000298    1.56903601
 C          3.77713704   -0.81324399   -0.42973599
 H          3.42838097    0.99599999   -2.38730502
 H          1.19442499    2.08743191   -0.73247600
 C          2.24471688   -1.08620906   -0.39444599
 H          4.26454306   -1.33210599    0.39814201
 H          4.18716097   -1.20176005   -1.36334205
 H          1.97851205   -1.83657098    0.34867501
 H          1.85769296   -1.38766503   -1.36701202
 H         -3.00040197    5.81251287   -0.07171900
 H         -1.43280303    5.90908623    0.78687203
 O         -1.14537799    3.36391401    1.03270495
 C         -2.38037109    5.37411690    0.70995897
 C         -2.13680291    3.89640808    0.45484599
 O         -2.93923092    3.27650690   -0.29405099
 H         -2.90110302    5.47626114    1.66667700
