55
wb97x-d4 ma-def2-tzvp(-f) cpcm(dmso) E: -1285.245739727375, G: -1284.8261388600001
 C         -1.10282898   -1.38344896    1.37143099
 C         -0.92505598   -0.08453800    0.58596498
 C         -1.72445905   -0.08357400   -0.71617800
 O         -1.36476099    0.98600799   -1.56133997
 C         -1.48261905   -1.37682498   -1.48553503
 C         -1.68496501   -2.59749603   -0.59483099
 C         -1.32817197   -3.88755107   -1.31041706
 O         -1.64644003   -5.04677391   -0.54385102
 O         -0.82355702   -2.49163103    0.54437202
 O         -2.37925196   -1.45855606   -2.58600211
 O         -1.09698105    0.99561101    1.40689397
 O         -2.40383506   -1.40685797    1.88467705
 H         -2.73099303   -2.63864112   -0.26855001
 H         -0.37299800   -1.44303799    2.18720508
 H          0.20172100   -0.10288000    0.23760501
 H         -2.78971791   -0.02794600   -0.45360300
 H         -0.44598600   -1.37733400   -1.84789205
 C         -2.62648797   -2.49990797    2.77545309
 H         -1.23056400    1.87181497    0.92261302
 H         -1.83700204   -3.90949297   -2.27793908
 H         -0.24960800   -3.91468406   -1.48372304
 H         -2.33001804   -0.60705203   -3.04073501
 H         -1.93295300    1.78102601   -1.35838306
 H         -2.60692191   -5.12671518   -0.50753802
 H         -1.87571394   -2.50171304    3.57345891
 H         -2.59188795   -3.45486307    2.24410200
 H         -3.61720705   -2.35788703    3.20576501
 C          3.27600408    2.10618305    0.02661500
 C          1.77676201    1.68793702    0.00088600
 C          4.13721323    0.84198099   -0.05587900
 C          3.73048711    0.04018900   -1.29672599
 C          2.25097895   -0.41865399   -1.13441598
 N          1.73831296    0.22661300    0.07743600
 H          3.49301600    2.65229797    0.94651902
 H          1.22688198    2.08674407    0.85224301
 H          5.19286108    1.11259604   -0.11637000
 H          3.82821798    0.65533102   -2.19312310
 H          2.16507101   -1.49656606   -1.00166404
 H          3.47846389    2.76672196   -0.81800902
 H          1.27922702    1.98515296   -0.92057800
 C          3.88594294   -0.01118300    1.19167900
 H          4.36874008   -0.83706200   -1.41394103
 H          1.63401699   -0.10343300   -1.97463405
 C          2.35854912   -0.29167899    1.29900002
 H          4.22209883    0.50981200    2.08955503
 H          4.42934322   -0.95525098    1.12111104
 H          1.90515494    0.22269499    2.14606905
 H          2.14321709   -1.35792696    1.36294603
 H         -3.64258194    5.48421001   -0.61081201
 H         -1.92016196    5.90384293   -0.61052698
 O         -1.43491805    3.42386198    0.62894100
 C         -2.68957806    5.30579901   -0.11312400
 C         -2.28869295    3.84276199   -0.20296299
 O         -2.80495095    3.13675404   -1.11187601
 H         -2.74041295    5.62523317    0.92861998
