55
wb97x-d4 ma-def2-tzvp(-f) cpcm(dmso) E: -1285.247555317429, G: -1284.82613814
 C         -1.23224902   -1.25739706    1.45854998
 C         -1.15509200   -0.05326900    0.52065200
 C         -1.90867901   -0.29136199   -0.79045302
 O         -1.64959598    0.69506198   -1.76159704
 C         -1.49660301   -1.62876999   -1.39227700
 C         -1.63090599   -2.74423003   -0.36566699
 C         -1.12269199   -4.07483482   -0.88295901
 O         -1.32186794   -5.11888695    0.06523300
 O         -0.82819998   -2.42767191    0.77903998
 O         -2.31418204   -1.94220304   -2.51223803
 O         -1.45949996    1.09836400    1.19265604
 O         -2.53641891   -1.34523106    1.95301902
 H         -2.67991090   -2.84597206   -0.06693700
 H         -0.51647502   -1.14199400    2.28118110
 H         -0.01262000   -0.00489300    0.20856100
 H         -2.98017907   -0.32916000   -0.54779899
 H         -0.44399199   -1.55909503   -1.70117104
 C         -2.67504692   -2.32311010    2.98375106
 H         -1.31230199    1.92876506    0.62644601
 H         -1.67586601   -4.35054016   -1.78084898
 H         -0.06000100   -3.98005295   -1.13924098
 H         -2.34387898   -1.14785695   -3.06190395
 H         -2.11964107    1.54017699   -1.53536701
 H         -0.87102002   -4.85933304    0.87819499
 H         -3.69475794   -2.24208593    3.35840797
 H         -1.96744800   -2.12449408    3.79631400
 H         -2.50750995   -3.33120203    2.59482503
 C          3.19338989    1.42295396   -1.25396597
 C          1.72896802    0.89977801   -1.23204303
 C          3.90885401    0.92612797    0.00690000
 C          3.74613404   -0.59595603    0.09491400
 C          2.24043798   -0.92276901    0.31129599
 N          1.50125599    0.32667401    0.10004300
 H          3.19739795    2.51443505   -1.28596103
 H          1.00337303    1.69584894   -1.38709795
 H          4.96749020    1.18827701   -0.03329100
 H          4.09953213   -1.06677902   -0.82459903
 H          2.03446102   -1.26309705    1.32558095
 H          3.69255710    1.05427301   -2.15157604
 H          1.56022501    0.11205300   -1.96495402
 C          3.25353789    1.56730604    1.23442197
 H          4.32354593   -1.00039399    0.92792702
 H          1.87212706   -1.66217995   -0.39846599
 C          1.72291005    1.30153203    1.17117298
 H          3.42916489    2.64413309    1.24994195
 H          3.66784310    1.14173496    2.15049791
 H          1.15890503    2.19959688    0.92409098
 H          1.34186602    0.87942702    2.10088491
 H         -2.22637796    5.79754686   -0.10214300
 H         -2.54400611    5.55255699   -1.83504105
 O         -0.99777502    3.34634495    0.03800800
 C         -1.88331604    5.29186916   -1.00894105
 C         -1.87431502    3.79354095   -0.75946301
 O         -2.73226094    3.07707095   -1.34026504
 H         -0.86929899    5.63936090   -1.21624804
