55
wb97x-d4 ma-def2-tzvp(-f) cpcm(dmso) E: -1285.245933559261, G: -1284.82608555
 C         -1.12457705   -1.33448696    1.36918998
 C         -1.01857901   -0.01710600    0.61066699
 C         -1.87920702    0.00249500   -0.65689999
 O         -1.59401596    1.13209701   -1.44787598
 C         -1.62940300   -1.25766003   -1.48229396
 C         -1.65379095   -2.52731299   -0.62585402
 C         -1.16380703   -3.75187802   -1.37886500
 O          0.18321700   -3.61378789   -1.82300699
 O         -0.79024100   -2.40152907    0.51037002
 O         -2.56250191   -1.37347102   -2.54984093
 O         -1.17654598    1.03759098    1.46678805
 O         -2.41884589   -1.44392598    1.88623595
 H         -2.68217802   -2.71399307   -0.29222700
 H         -0.38762900   -1.37275803    2.17953396
 H          0.09024200   -0.01241000    0.21327800
 H         -2.93078804    0.01113400   -0.33413199
 H         -0.65034097   -1.16892195   -1.95710599
 C         -2.57100701   -2.55486107    2.77011299
 H         -1.24168897    1.93831396    1.01260400
 H         -1.26608205   -4.62791777   -0.72881699
 H         -1.77856302   -3.90214801   -2.26651812
 H         -3.45322800   -1.37358999   -2.17659712
 H         -2.14914703    1.89510000   -1.13389897
 H          0.73116100   -3.46743202   -1.04195094
 H         -2.47646594   -3.50207090    2.23210812
 H         -3.56840611   -2.47908807    3.20156789
 H         -1.82097006   -2.51420307    3.56762004
 C          3.84243989   -0.67343998    0.58392799
 C          2.31689596   -0.79176998    0.86501402
 C          4.08246899    0.59051198   -0.24947700
 C          3.41246891    1.77655804    0.45467299
 C          1.87235498    1.56324196    0.41347900
 N          1.64841497    0.17878500   -0.00645000
 H          4.19012308   -1.55582297    0.04301600
 H          1.93209195   -1.78373694    0.63069898
 H          5.15299988    0.77259898   -0.35697800
 H          3.75328207    1.84408605    1.48973000
 H          1.38509798    2.21266794   -0.31293699
 H          4.37745810   -0.62241101    1.53350794
 H          2.06999707   -0.53828800    1.89564705
 C          3.43699694    0.40036300   -1.62697196
 H          3.65470004    2.71530700   -0.04607200
 H          1.41067100    1.70517802    1.39050806
 C          1.95709300   -0.03597500   -1.42344999
 H          3.95994592   -0.36865199   -2.19772100
 H          3.47508001    1.33235598   -2.19438910
 H          1.80781400   -1.09308004   -1.64062798
 H          1.26793802    0.55965298   -2.02030993
 H         -3.24284601    5.76875401   -0.57535398
 H         -1.88435304    5.99216223    0.57011402
 O         -1.33041596    3.50905895    0.75345099
 C         -2.74639606    5.37637377    0.31246001
 C         -2.33521390    3.92766809    0.11036500
 O         -3.02884507    3.21522808   -0.66552001
 H         -3.45488191    5.41644478    1.14547801
