55
wb97x-d4 ma-def2-tzvp(-f) cpcm(dmso) E: -1285.247467007569, G: -1284.82599221
 C         -1.08730698   -1.33471894    1.49191403
 C         -1.07203305   -0.07175600    0.63151002
 C         -1.92440796   -0.23045900   -0.63015401
 O         -1.75732803    0.83058798   -1.54054999
 C         -1.54386997   -1.51638305   -1.35218894
 C         -1.59082901   -2.70285392   -0.40009299
 C         -1.09530497   -3.98156190   -1.04517698
 O         -1.21829402   -5.09715223   -0.16857800
 O         -0.72025299   -2.45300198    0.71126401
 O         -2.43784690   -1.76466703   -2.42896199
 O         -1.32110703    1.03336406    1.39624405
 O         -2.35912704   -1.46599197    2.05586100
 H         -2.61618805   -2.84786201   -0.04266900
 H         -0.32429001   -1.27006495    2.27655101
 H          0.04459400   -0.00325300    0.23583400
 H         -2.97273302   -0.30472800   -0.30888700
 H         -0.51817101   -1.41223705   -1.73205698
 C         -2.43474507   -2.51934791    3.01665092
 H         -1.29106903    1.89752996    0.86615098
 H         -1.69931197   -4.20127106   -1.92561603
 H         -0.05241500   -3.84613895   -1.35848498
 H         -2.51538706   -0.93518698   -2.91876698
 H         -2.27282405    1.62333095   -1.23367202
 H         -0.71726298   -4.89283705    0.63057601
 H         -2.30862498   -3.49567389    2.54079890
 H         -3.42333603   -2.45986295    3.47029591
 H         -1.66731501   -2.38963199    3.78778291
 C          3.32279396    1.78097200    0.80686802
 C          1.86809194    1.28843999    1.05742598
 C          3.94933796    0.91062498   -0.28807300
 C          3.19096398    1.14431095   -1.59799397
 C          1.67480099    0.91444898   -1.34174705
 N          1.55077600    0.32774699   -0.00133200
 H          3.89099193    1.70534098    1.73533201
 H          1.76829100    0.77466500    2.01305509
 H          5.00301790    1.16596305   -0.41301000
 H          3.34321094    2.16359401   -1.95676601
 H          1.23907602    0.22363400   -2.06133795
 H          3.31206703    2.82780790    0.49723199
 H          1.14614999    2.10262394    1.00718498
 C          3.80824208   -0.56363398    0.10610900
 H          3.54581189    0.45548999   -2.36727309
 H          1.10847700    1.84409797   -1.34866798
 C          2.29603195   -0.92872298    0.13799500
 H          4.25209713   -0.73673999    1.08855700
 H          4.31700993   -1.20581996   -0.61472201
 H          2.00743198   -1.39494705    1.07893705
 H          2.00922990   -1.57818198   -0.68805099
 H         -2.07095408    5.56359005   -1.51360404
 H         -1.65148604    5.86297321    0.18798301
 O         -1.16272497    3.39026093    0.36956200
 C         -2.31250596    5.30901909   -0.47783199
 C         -2.15228105    3.80929399   -0.29777101
 O         -3.00664306    3.05851197   -0.84301698
 H         -3.35051894    5.59647322   -0.30062699
