55
wb97x-d4 ma-def2-tzvp(-f) cpcm(dmso) E: -1285.246551191346, G: -1284.82587388
 C         -0.96618402   -1.67820799    1.14516699
 C         -0.92730898   -0.21873701    0.69536000
 C         -1.89603496    0.04858500   -0.46021801
 O         -1.71747303    1.32046402   -1.03775299
 C         -1.66919303   -0.98651302   -1.55196095
 C         -1.71723795   -2.40555310   -0.99623400
 C         -1.36034095   -3.45642710   -2.04133892
 O         -2.38446689   -3.61551189   -3.01607394
 O         -0.74135900   -2.53181005    0.04051400
 O         -2.66365194   -0.86863703   -2.56678200
 O         -1.02166796    0.61500299    1.77485502
 O         -2.19727111   -1.91151202    1.76271200
 H         -2.71883392   -2.61303902   -0.60319501
 H         -0.14278100   -1.88727903    1.83816195
 H          0.14863101   -0.09834500    0.22676501
 H         -2.91685009   -0.06279200   -0.07008800
 H         -0.67511702   -0.81806302   -1.98818195
 C         -2.28526211   -3.20220709    2.36618710
 H         -1.09390795    1.59411395    1.52758300
 H         -0.40568700   -3.18873906   -2.51257300
 H         -1.23925197   -4.41990423   -1.54244804
 H         -2.64351296    0.04561500   -2.87842107
 H         -2.21606588    2.00160694   -0.51002002
 H         -2.60897803   -2.73039508   -3.33773994
 H         -3.21350408   -3.21940207    2.93609095
 H         -1.43683898   -3.36848307    3.03909707
 H         -2.30712605   -3.99031305    1.60860503
 C          3.66128111    0.98003799    1.13577402
 C          2.18358397    0.52293497    1.31152499
 C          4.08070517    0.72569698   -0.31664899
 C          3.23110700    1.60934496   -1.23545301
 C          1.72858095    1.32516599   -0.94713199
 N          1.67628002    0.19051400   -0.01940200
 H          4.29424715    0.41966501    1.82562697
 H          2.10138202   -0.36936799    1.93155098
 H          5.13915491    0.95828599   -0.44595999
 H          3.43941402    2.66508794   -1.05447102
 H          1.18048704    1.05137205   -1.84690297
 H          3.75224495    2.04110909    1.37525403
 H          1.55713701    1.31025398    1.72914505
 C          3.82075596   -0.74410099   -0.66460401
 H          3.45391297    1.39228499   -2.28183103
 H          1.23422897    2.16889000   -0.46795401
 C          2.29120588   -1.02096403   -0.56938100
 H          4.35694790   -1.39763701    0.02609300
 H          4.16355896   -0.96482497   -1.67678797
 H          2.06582808   -1.85145605    0.09772400
 H          1.84426999   -1.20983601   -1.54454803
 H         -2.85471392    5.09952402    2.61328506
 H         -3.16195512    5.67451000    0.96145499
 O         -1.13619804    3.17627406    1.56465495
 C         -2.44280791    5.16475821    1.60201597
 C         -2.16244102    3.75636506    1.10568500
 O         -2.96578002    3.23596811    0.28500101
 H         -1.51513600    5.73662090    1.65821898
