55
wb97x-d4 ma-def2-tzvp(-f) cpcm(dmso) E: -1285.245736615443, G: -1284.82574991
 C         -1.17570198   -1.23282397    1.52930200
 C         -1.00183594   -0.03715900    0.59833300
 C         -1.75778902   -0.18059701   -0.72636998
 O         -1.32791197    0.79279602   -1.64875901
 C         -1.52828002   -1.56607199   -1.32773399
 C         -1.69370604   -2.67690897   -0.29017699
 C         -1.29200006   -4.04407787   -0.81209600
 O          0.06764100   -4.09192419   -1.23566306
 O         -0.85605597   -2.42384696    0.84519398
 O         -2.38084006   -1.79459202   -2.44331789
 O         -1.20909595    1.12890601    1.28557003
 O         -2.48807001   -1.22769201    2.01091290
 H         -2.74352002   -2.72510791    0.02476300
 H         -0.46488100   -1.17730606    2.36182690
 H          0.12817800   -0.07958100    0.27935100
 H         -2.82959890   -0.06317100   -0.50764102
 H         -0.51111603   -1.60597098   -1.72268605
 C         -2.70663095   -2.20063996    3.03245497
 H         -1.28670895    1.94729400    0.70047402
 H         -1.47703803   -4.78601789   -0.02728300
 H         -1.90382504   -4.29350090   -1.67922795
 H         -3.29701495   -1.70213997   -2.15115690
 H         -1.89578104    1.60565400   -1.55764401
 H          0.61706299   -3.86221695   -0.47627601
 H         -2.62367702   -3.21555805    2.63406301
 H         -3.71557093   -2.03915906    3.41030908
 H         -1.98409200   -2.06993604    3.84562898
 C          3.60641909   -0.02418100   -1.36662996
 C          2.13411808   -0.47347501   -1.12893605
 C          4.06013393    0.82634699   -0.17505200
 C          3.84724092    0.02508600    1.11364901
 C          2.32151794   -0.22765601    1.29133904
 N          1.66654503    0.23418000    0.06570300
 H          3.66955996    0.55409902   -2.29027891
 H          1.48621404   -0.20203200   -1.96091104
 H          5.11446381    1.08715498   -0.28267699
 H          4.37478685   -0.92891699    1.05812001
 H          1.90520501    0.33834499    2.12442899
 H          4.23915815   -0.90677899   -1.47266901
 H          2.05464792   -1.54291701   -0.93658698
 C          3.20859909    2.09856391   -0.11520700
 H          4.22464991    0.57437003    1.97765601
 H          2.09498096   -1.28559804    1.42062104
 C          1.70681405    1.68925500   -0.08409400
 H          3.38994789    2.72637296   -0.98906201
 H          3.45447993    2.67662907    0.77754402
 H          1.18793702    1.94180405   -1.00696099
 H          1.17896998    2.13333201    0.75881499
 H         -1.82147598    5.89052677   -0.73710901
 H         -3.25160909    5.48200417    0.20810300
 O         -1.41957998    3.47066307    0.21719500
 C         -2.70273304    5.24630880   -0.70768702
 C         -2.27146506    3.78973889   -0.66011000
 O         -2.78358793    2.98163199   -1.48161101
 H         -3.33807993    5.44649982   -1.56974101
