55
wb97x-d4 ma-def2-tzvp(-f) cpcm(dmso) E: -1285.245510039017, G: -1284.82557287
 C         -1.06518698   -1.37808800    1.33217001
 C         -1.00340295   -0.05433900    0.57736301
 C         -1.86436200   -0.04976600   -0.69138497
 O         -1.60634100    1.08525205   -1.48153901
 C         -1.59716499   -1.30490994   -1.52051699
 C         -1.63233805   -2.56433296   -0.65389299
 C         -1.17173803   -3.79252791   -1.41470098
 O         -1.29194105   -4.97565222   -0.63069397
 O         -0.73669600   -2.43466496    0.45717299
 O         -2.51439095   -1.41823995   -2.60163903
 O         -1.19757402    0.98950398    1.43788004
 O         -2.34072495   -1.51441002    1.88794398
 H         -2.65273690   -2.72550201   -0.28575000
 H         -0.30136001   -1.40489495    2.11821604
 H          0.10915100   -0.00496400    0.17714000
 H         -2.91527891   -0.06652000   -0.36500499
 H         -0.60739303   -1.21645701   -1.97890997
 C         -2.45084000   -2.65016508    2.74641395
 H         -1.21498501    1.89733696    0.98999798
 H         -1.79655099   -3.93033290   -2.29675198
 H         -0.13325199   -3.64533806   -1.73753703
 H         -3.41066909   -1.40976000   -2.24181795
 H         -2.13543892    1.85310996   -1.13884497
 H         -0.76765299   -4.84509611    0.16893300
 H         -1.67277002   -2.62354803    3.51730204
 H         -2.36685991   -3.58159494    2.17982697
 H         -3.43272901   -2.59577990    3.21496296
 C          3.86658502   -0.68190300    0.14245801
 C          2.34417796   -1.00331497    0.12557399
 C          4.06308889    0.77963001   -0.27493799
 C          3.43645191    1.68788397    0.78889298
 C          1.96736598    1.23081303    1.02292705
 N          1.64208996    0.27457500   -0.03683200
 H          4.38139486   -1.35345495   -0.54661298
 H          2.06585097   -1.64435196   -0.70973301
 H          5.12677383    1.00088000   -0.37811100
 H          3.98497105    1.62132001    1.72979903
 H          1.26581705    2.06213808    0.96293998
 H          4.26982212   -0.84703898    1.14362502
 H          2.01423502   -1.46124101    1.05682003
 C          3.34299397    1.01288700   -1.60646999
 H          3.45364404    2.72751498    0.45606801
 H          1.84380102    0.72217399    1.97844994
 C          1.81392705    0.84669298   -1.37768304
 H          3.68717504    0.29414901   -2.35292196
 H          3.54108000    2.01754189   -1.98359895
 H          1.36496997    0.16889501   -2.10153604
 H          1.28579700    1.79822302   -1.40107703
 H         -3.28240395    5.43057489    1.13892496
 H         -3.05644011    5.78244019   -0.57951802
 O         -1.21118498    3.45530295    0.71722901
 C         -2.57463908    5.36839819    0.30659199
 C         -2.21875906    3.90620494    0.09864900
 O         -2.95666099    3.21395111   -0.65342301
 H         -1.69070005    5.95080423    0.56716198
