55
wb97x-d4 ma-def2-tzvp(-f) cpcm(dmso) E: -1285.246557277734, G: -1284.8253700500002
 C         -1.01960599   -1.46239603    1.35037601
 C         -0.97908401   -0.09978900    0.66154301
 C         -1.88202298   -0.05878000   -0.57337397
 O         -1.69042695    1.09932101   -1.35172296
 C         -1.57263994   -1.25752795   -1.45813894
 C         -1.62469101   -2.56427598   -0.67403102
 C         -1.18383002   -3.76531196   -1.50263000
 O         -2.15017891   -4.12866211   -2.48193789
 O         -0.71223700   -2.48440409    0.42315599
 O         -2.50861692   -1.34254801   -2.52980494
 O         -1.14866400    0.90218401    1.57580698
 O         -2.28093410   -1.62473094    1.92929602
 H         -2.64407301   -2.73401403   -0.30961901
 H         -0.23587701   -1.52680600    2.11422491
 H          0.12028600   -0.03569000    0.23725900
 H         -2.92204309   -0.12849800   -0.22643299
 H         -0.55829298   -1.13472903   -1.86180305
 C         -2.37029290   -2.78984308    2.74978805
 H         -1.18627906    1.82613504    1.16477501
 H         -0.21311900   -3.54975104   -1.96768904
 H         -1.06352997   -4.62306976   -0.83814001
 H         -2.48892999   -0.49379101   -2.99091005
 H         -2.20482898    1.85684395   -0.96037602
 H         -2.37300992   -3.32421088   -2.97186589
 H         -1.57484996   -2.78843498    3.50317693
 H         -2.29897499   -3.70063090    2.14915109
 H         -3.34119892   -2.75314999    3.24236393
 C          3.62207794    1.01071000    1.22327197
 C          2.07766604    0.83391398    1.29492903
 C          4.08129787    0.70741600   -0.20725000
 C          3.26976800    1.56951404   -1.18042397
 C          1.77883899    1.13131797   -1.10559797
 N          1.66001105    0.21628800    0.03480300
 H          4.10577917    0.33203200    1.92846406
 H          1.77831495    0.18026100    2.11374998
 H          5.14602995    0.92226303   -0.31270200
 H          3.36006498    2.62526107   -0.91714197
 H          1.46122801    0.59205502   -1.99703801
 H          3.87868595    2.03335810    1.50402498
 H          1.55960596    1.78746605    1.38639796
 C          3.80782890   -0.76860499   -0.51562703
 H          3.62976694    1.44082105   -2.20246410
 H          1.10860801    1.97268295   -0.93698800
 C          2.31438398   -1.07442796   -0.20322201
 H          4.44027281   -1.41631305    0.09359200
 H          4.01698685   -0.97901702   -1.56628799
 H          2.19690394   -1.67893600    0.69498599
 H          1.81334198   -1.56584704   -1.03575599
 H         -3.30062795    5.36997604    1.41067100
 H         -3.02144098    5.77311707   -0.28749201
 O         -1.21104503    3.39338303    0.93716198
 C         -2.56923509    5.32518721    0.59797001
 C         -2.22642803    3.86599994    0.35016599
 O         -2.98464608    3.19854999   -0.40491599
 H         -1.68609703    5.88813400    0.90027499
