55
wb97x-d4 ma-def2-tzvp(-f) cpcm(dmso) E: -1285.246231702166, G: -1284.82534953
 C         -1.11303401   -1.38137102    1.46273601
 C         -0.96000999   -0.08198600    0.67268801
 C         -1.78179705   -0.08045200   -0.61701602
 O         -1.41969800    0.98204798   -1.47093904
 C         -1.55420601   -1.37888002   -1.37961400
 C         -1.75213206   -2.59153891   -0.48163801
 C         -1.48298097   -3.91357207   -1.17943299
 O         -0.19154499   -3.99348807   -1.77861094
 O         -0.85530299   -2.49187493    0.63100398
 O         -2.45417905   -1.47611296   -2.47606897
 O         -1.12056506    0.99921298    1.49634802
 O         -2.39905310   -1.40773904    2.01309609
 H         -2.78784800   -2.61278391   -0.12303300
 H         -0.36058801   -1.43728197    2.25788593
 H          0.15465100   -0.09989600    0.30333200
 H         -2.84297109   -0.01240500   -0.34135699
 H         -0.52073801   -1.38110006   -1.74562597
 C         -2.59074497   -2.49365592    2.91936111
 H         -1.25463700    1.87316597    1.01030600
 H         -1.53377795   -4.71019077   -0.43403599
 H         -2.26649404   -4.08596516   -1.92216301
 H         -2.39353895   -0.63888800   -2.95493698
 H         -1.97938299    1.78312397   -1.26873302
 H         -0.22739001   -3.55964303   -2.63827896
 H         -1.81818998   -2.48427296    3.69626999
 H         -2.56549191   -3.45342588    2.39610910
 H         -3.56997395   -2.35340595    3.37574792
 C          3.91506100   -0.29052901    0.94051898
 C          2.38898802   -0.48978800    1.17195499
 C          4.10485697    0.73059601   -0.18634300
 C          3.31526899    1.99756598    0.16059500
 C          1.79819703    1.64765596    0.15874000
 N          1.70038295    0.19044900    0.07228100
 H          4.37572384   -1.24287295    0.67098302
 H          2.10697603   -1.54212499    1.15197098
 H          5.16357422    0.96910501   -0.30159301
 H          3.61091995    2.37033892    1.14314306
 H          1.27873600    2.06721497   -0.70134002
 H          4.37558508    0.06264600    1.86448002
 H          2.05142093   -0.03969900    2.10524893
 C          3.55247808    0.14407100   -1.49002802
 H          3.49999404    2.78420210   -0.57277501
 H          1.30154395    1.97015405    1.07332206
 C          2.08928990   -0.32694799   -1.24231505
 H          4.15159082   -0.70705998   -1.81752598
 H          3.56879902    0.89788997   -2.27954006
 H          2.00441289   -1.41274798   -1.21304405
 H          1.40174794    0.07375200   -1.98579502
 H         -1.94265699    5.93025112    0.30426899
 H         -3.51526499    5.33487701    0.84132802
 O         -1.46070600    3.42884588    0.70684898
 C         -2.78194904    5.28932905    0.03058500
 C         -2.32314491    3.84804392   -0.11605000
 O         -2.83847308    3.14699006   -1.02920496
 H         -3.25173807    5.65017319   -0.88411599
