55
wb97x-d4 ma-def2-tzvp(-f) cpcm(dmso) E: -1285.246451151614, G: -1284.8253388800001
 C         -1.09211195   -1.42053902    1.47163701
 C         -1.07192004   -0.12616999    0.66148102
 C         -1.93475497   -0.22795101   -0.60024798
 O         -1.75832105    0.85896498   -1.47724497
 C         -1.56136298   -1.49087095   -1.36133206
 C         -1.60375595   -2.71984792   -0.45951900
 C         -1.10899401   -3.98057890   -1.15873599
 O         -2.03692603   -4.45828199   -2.12570095
 O         -0.72909701   -2.51335311    0.65232199
 O         -2.45673800   -1.70793796   -2.44987512
 O         -1.30194700    0.95272899    1.46778202
 O         -2.36341405   -1.56781006    2.03200507
 H         -2.62944198   -2.88323903   -0.11011700
 H         -0.32831901   -1.38886297    2.25728703
 H          0.04513500   -0.05730100    0.26497900
 H         -2.98182607   -0.30268201   -0.27529901
 H         -0.53876299   -1.37363696   -1.74405503
 C         -2.43848205   -2.64402103    2.96732092
 H         -1.21132398    1.83604097    0.97342199
 H         -0.13014300   -3.78365207   -1.61491704
 H         -0.98916203   -4.76899576   -0.41320699
 H         -2.43712497   -0.91371399   -2.99918294
 H         -2.21963191    1.66489697   -1.12499404
 H         -2.26249790   -3.70874596   -2.69528008
 H         -3.42512202   -2.59284210    3.42617393
 H         -1.66783702   -2.53494501    3.73837900
 H         -2.31706309   -3.60885096    2.46758699
 C          3.75822091   -0.58589298   -0.44442201
 C          2.28757405   -0.97487801   -0.12095800
 C          3.94461393    0.90798700   -0.15745901
 C          3.45855904    1.20339406    1.26580799
 C          1.92469203    0.95477301    1.32430506
 N          1.55173504    0.27960500    0.07803800
 H          3.97616196   -0.79792202   -1.49308300
 H          1.81892800   -1.52217102   -0.93748802
 H          4.99582100    1.18243301   -0.26035199
 H          3.96796608    0.55527502    1.98170197
 H          1.36058199    1.88437605    1.37981796
 H          4.43022108   -1.18659997    0.17064300
 H          2.20667291   -1.55745995    0.79578698
 C          3.08994699    1.70720196   -1.14725995
 H          3.66354704    2.23973703    1.53884804
 H          1.64699900    0.31256899    2.15970993
 C          1.63061094    1.17367697   -1.08430505
 H          3.46890092    1.59425199   -2.16437292
 H          3.10940790    2.76885700   -0.89264703
 H          1.36470199    0.59245902   -1.96629202
 H          0.90344602    1.97196698   -0.94567001
 H         -2.78287196    5.67839622   -0.87155497
 H         -1.06547201    5.76313210   -0.38124901
 O         -2.85088897    3.15053511   -0.69485700
 C         -2.04339409    5.33823013   -0.14732900
 C         -1.95625806    3.82209110   -0.11559100
 O         -0.98096102    3.31340909    0.51241100
 H         -2.32852197    5.69276714    0.84715098
