55
wb97x-d4 ma-def2-tzvp(-f) cpcm(dmso) E: -1285.246437283567, G: -1284.8253341200002
 C         -1.07558596   -1.55746901    1.34770501
 C         -1.05008197   -0.19556800    0.65677100
 C         -1.93327200   -0.17485200   -0.59450501
 O         -1.75452495    0.98071098   -1.37869799
 C         -1.59336495   -1.37112403   -1.47060895
 C         -1.63905597   -2.67383909   -0.67984301
 C         -1.17824495   -3.87578797   -1.49605596
 O         -2.13466501   -4.25832701   -2.47785091
 O         -0.73943001   -2.57602906    0.42660400
 O         -2.51231289   -1.47593701   -2.55548406
 O         -1.25736296    0.80712801    1.56098402
 O         -2.34140110   -1.73893404    1.91136396
 H         -2.66017509   -2.85237503   -0.32470900
 H         -0.30085099   -1.60716796    2.12136698
 H          0.06222300   -0.10065100    0.25194401
 H         -2.97592592   -0.26240501   -0.25865301
 H         -0.57537103   -1.23503900   -1.85986495
 C         -2.42188096   -2.90172601    2.73616195
 H         -1.17850995    1.73351800    1.15012598
 H         -0.20741500   -3.65276694   -1.95724201
 H         -1.05223596   -4.72662020   -0.82378101
 H         -2.49550390   -0.63208997   -3.02529311
 H         -2.20591593    1.75741994   -0.95460701
 H         -2.36215496   -3.46068096   -2.97668791
 H         -2.33057189   -3.81389499    2.14034510
 H         -3.39845109   -2.87743711    3.21821904
 H         -1.63467300   -2.88501310    3.49792600
 C          3.48376894    1.07067204    1.34066904
 C          1.95469999    0.79044199    1.39705300
 C          3.94926691    0.94150501   -0.11393000
 C          3.07271600    1.83993006   -0.99305701
 C          1.61687005    1.29401505   -0.96212500
 N          1.56508005    0.26663601    0.08532900
 H          4.01534319    0.35675099    1.97293305
 H          1.70403397    0.04638000    2.15244699
 H          4.99650192    1.23615801   -0.20071501
 H          3.09299994    2.86676002   -0.62234902
 H          1.33351398    0.82142901   -1.90150499
 H          3.67851305    2.07434297    1.72171605
 H          1.37894595    1.69683099    1.57738101
 C          3.77084494   -0.51222402   -0.56569302
 H          3.43279600    1.84314501   -2.02322102
 H          0.89073300    2.06589603   -0.71288300
 C          2.30633903   -0.94755697   -0.27396899
 H          4.45374107   -1.17250597   -0.02857200
 H          3.97929311   -0.60323900   -1.63359201
 H          2.24235296   -1.63672602    0.56726497
 H          1.83080196   -1.39678597   -1.14464605
 H         -1.03229702    5.76280022    0.12396500
 H         -2.27891588    5.60585499    1.36107695
 O         -0.96600699    3.25044298    0.84242803
 C         -2.01046705    5.32780981    0.33815101
 C         -1.93296897    3.81349397    0.24896400
 O         -2.82561994    3.19646096   -0.39089999
 H         -2.75616693    5.72823381   -0.34785199
