55
wb97x-d4 ma-def2-tzvp(-f) cpcm(dmso) E: -1285.247661704697, G: -1284.8272559900001
 C         -1.15750897   -1.01772201    1.64426804
 C         -1.12500501    0.02497700    0.52836001
 C         -1.90059805   -0.43266901   -0.70949697
 O         -1.68934500    0.39780700   -1.82828605
 C         -1.46092796   -1.83631206   -1.10553396
 C         -1.53521001   -2.78247404    0.08453200
 C         -0.98448098   -4.15877914   -0.23041500
 O         -1.10448098   -5.03832197    0.88336998
 O         -0.72387803   -2.26632810    1.14707899
 O         -2.29353309   -2.34357405   -2.13969398
 O         -1.43867099    1.26163602    1.02027094
 O         -2.45246506   -1.06637001    2.16699195
 H         -2.57391405   -2.87209010    0.42054600
 H         -0.43672800   -0.75565898    2.42798495
 H          0.00462400    0.03714400    0.18507101
 H         -2.96561003   -0.45904699   -0.43950000
 H         -0.41841000   -1.78675497   -1.45097995
 C         -2.54968405   -1.88769996    3.33059192
 H         -1.36126602    1.99685705    0.32408801
 H         -1.55251205   -4.60090208   -1.04895401
 H          0.06416900   -4.06499720   -0.53970200
 H         -2.36676192   -1.64366996   -2.80202198
 H         -2.20236993    1.24356794   -1.73285198
 H         -0.65316302   -4.62082911    1.62745297
 H         -2.36001301   -2.93691707    3.08844495
 H         -3.56593895   -1.77906704    3.70771909
 H         -1.83646095   -1.55575395    4.09301186
 C          3.27065992    1.74780905    0.95149302
 C          1.73940897    1.48345101    0.91262501
 C          3.92539406    0.95756000   -0.18632300
 C          3.19285989    1.27554095   -1.49527895
 C          1.74393106    0.71777201   -1.39914000
 N          1.52632105    0.35384101    0.00496400
 H          3.67889595    1.43319094    1.91410995
 H          1.34413004    1.21619904    1.89240801
 H          4.98049212    1.22305405   -0.27083600
 H          3.16572404    2.35445309   -1.66072297
 H          1.60624599   -0.18037800   -2.00003505
 H          3.45057702    2.81787300    0.83744699
 H          1.18471396    2.33371592    0.51832598
 C          3.77867198   -0.54014999    0.10622200
 H          3.69771600    0.81312102   -2.34497190
 H          0.99702001    1.45755994   -1.68095100
 C          2.28037906   -0.84112102    0.39804101
 H          4.37551785   -0.82740700    0.97339499
 H          4.11649799   -1.12803102   -0.74963802
 H          2.09570599   -1.01777697    1.45685899
 H          1.90781999   -1.68632901   -0.17909899
 H         -2.82456303    5.12619114   -2.65621090
 H         -1.28883100    5.52258301   -1.82694304
 O         -2.91584492    2.74799204   -1.75112402
 C         -2.26709008    5.05106306   -1.72286105
 C         -2.11407900    3.60337210   -1.28879595
 O         -1.19227195    3.34071803   -0.46177599
 H         -2.81585503    5.58809519   -0.94353199
