55
wb97x-d4 ma-def2-tzvp(-f) cpcm(dmso) E: -1285.245448844584, G: -1284.82531354
 C         -1.06778395   -1.55612397    1.20410001
 C         -0.92082602   -0.14774500    0.63003200
 C         -1.80584002    0.06313800   -0.59773803
 O         -1.49834001    1.25605702   -1.28275001
 C         -1.62799501   -1.08636904   -1.58325100
 C         -1.77765501   -2.43777800   -0.89398599
 C         -1.47295499   -3.58315110   -1.83274496
 O         -1.83358705   -4.80859518   -1.19544101
 O         -0.84525001   -2.51416302    0.19155499
 O         -2.59962511   -0.98934698   -2.61707091
 O         -1.02452505    0.78704500    1.62406802
 O         -2.33789110   -1.66398895    1.77946901
 H         -2.79972291   -2.54318810   -0.51431000
 H         -0.29287499   -1.74740696    1.95543504
 H          0.18172801   -0.11748300    0.21575201
 H         -2.84990907    0.07078600   -0.25602099
 H         -0.61954302   -1.02120304   -2.01293707
 C         -2.51500392   -2.87781405    2.50927091
 H         -1.10999894    1.73682106    1.29281795
 H         -2.04602790   -3.44334793   -2.75368309
 H         -0.40378901   -3.57129693   -2.07636404
 H         -2.57582211   -0.07419100   -2.92718911
 H         -2.01813293    2.01010489   -0.88662398
 H         -1.63619196   -5.52818584   -1.80500805
 H         -1.71189296   -3.00237989    3.24419188
 H         -2.53049207   -3.74185801    1.83944595
 H         -3.47204590   -2.79850793    3.02368402
 C          3.87875199    0.02933900    1.09688306
 C          2.39953399   -0.45440599    1.12841105
 C          4.11143398    0.79076803   -0.21272300
 C          3.25778198    2.06331611   -0.20286199
 C          1.78349602    1.66723704    0.09930400
 N          1.71244895    0.20622399    0.01607500
 H          4.53949022   -0.83624297    1.16564405
 H          2.31578398   -1.53050995    0.97904402
 H          5.16717100    1.04771602   -0.31468201
 H          3.60653710    2.75859189    0.56220800
 H          1.08529103    2.08344293   -0.62484998
 H          4.07572985    0.67845100    1.95225203
 H          1.89747798   -0.17361499    2.05438209
 C          3.67016506   -0.09512000   -1.38299596
 H          3.31468105    2.56429505   -1.17128003
 H          1.47937298    1.95845795    1.10350001
 C          2.13109207   -0.30797100   -1.29108405
 H          4.18067789   -1.05920601   -1.34083104
 H          3.90944600    0.37592900   -2.33775091
 H          1.85847795   -1.36138499   -1.34882700
 H          1.59244001    0.24977501   -2.05605602
 H         -3.01359701    5.81044912    0.15355700
 H         -1.69047594    5.84093714    1.35958695
 O         -2.82336402    3.30313492   -0.30791301
 C         -2.55575895    5.28757381    0.99342400
 C         -2.16580391    3.87102103    0.60701698
 O         -1.21665001    3.33135796    1.24269795
 H         -3.28963304    5.23061705    1.80316806
