55
wb97x-d4 ma-def2-tzvp(-f) cpcm(dmso) E: -1285.24644373193, G: -1284.8252661400002
 C         -1.10800397   -1.41802096    1.46334302
 C         -1.07743502   -0.12757801    0.64726901
 C         -1.92502201   -0.23625600   -0.62417001
 O         -1.73983502    0.84666002   -1.50405598
 C         -1.54117298   -1.50209701   -1.37511694
 C         -1.59132600   -2.72733498   -0.46856701
 C         -1.08310699   -3.98896003   -1.15640295
 O         -1.99638295   -4.47279406   -2.13416409
 O         -0.73216498   -2.51398611    0.65403903
 O         -2.42403507   -1.72571504   -2.47251797
 O         -1.31755304    0.95548099    1.44506395
 O         -2.38722992   -1.56385601    2.00595689
 H         -2.62104702   -2.89263892   -0.13223401
 H         -0.35595900   -1.38246906    2.25995398
 H          0.04511700   -0.06037700    0.26491499
 H         -2.97569704   -0.31089401   -0.31106600
 H         -0.51469803   -1.38446295   -1.74710202
 C         -2.47458696   -2.63541102    2.94559789
 H         -1.22353995    1.83600700    0.94686902
 H         -0.09880400   -3.79042697   -1.59996104
 H         -0.97087699   -4.77444410   -0.40660101
 H         -2.39934707   -0.93402398   -3.02528405
 H         -2.20729709    1.65323699   -1.16123605
 H         -2.21762395   -3.72572207   -2.70866108
 H         -1.71623898   -2.52065992    3.72792292
 H         -2.34343004   -3.60254502    2.45282412
 H         -3.46834111   -2.58402705    3.38879895
 C          3.76514411   -0.56709498   -0.42348501
 C          2.29431105   -0.96719497   -0.11477000
 C          3.94431591    0.92218900   -0.10909500
 C          3.44686294    1.19084597    1.31556594
 C          1.91315997    0.93812901    1.35759795
 N          1.55194902    0.28124899    0.09801700
 H          3.98946309   -0.75962597   -1.47457302
 H          1.83324206   -1.50456905   -0.94212103
 H          4.99526596    1.20193803   -0.19959000
 H          3.95213199    0.53081000    2.02348208
 H          1.34647000    1.86550200    1.42262995
 H          4.43608189   -1.17618406    0.18444701
 H          2.21030688   -1.56348896    0.79286098
 C          3.09369397    1.73600304   -1.09049499
 H          3.64750195    2.22249103    1.60888803
 H          1.63048196    0.28280601    2.18099904
 C          1.63704002    1.19366896   -1.04960704
 H          3.48134708    1.64483798   -2.10652089
 H          3.10557389    2.79264593   -0.81528503
 H          1.38294995    0.62453997   -1.94286895
 H          0.90394300    1.98564899   -0.90590203
 H         -2.36220503    5.68699694    0.79026598
 H         -2.78886008    5.66396523   -0.93525898
 O         -0.99264002    3.31392097    0.48040700
 C         -2.05893493    5.33071899   -0.19822299
 C         -1.96390295    3.81521606   -0.15950400
 O         -2.84912395    3.13676405   -0.74526399
 H         -1.07993400    5.76058722   -0.41801399
