55
wb97x-d4 ma-def2-tzvp(-f) cpcm(dmso) E: -1285.245757997258, G: -1284.8252589800002
 C         -1.13826501   -1.07886195    1.62226498
 C         -1.10610700    0.01832800    0.56008202
 C         -1.89260399   -0.37525299   -0.69026297
 O         -1.68411100    0.50417602   -1.77183402
 C         -1.47136104   -1.76222706   -1.15718603
 C         -1.54367197   -2.76718903   -0.01280500
 C         -1.02944601   -4.12751007   -0.42646301
 O         -1.31182504   -5.06067991    0.61645502
 O         -0.72006202   -2.30611801    1.06485403
 O         -2.32226992   -2.20048499   -2.20840693
 O         -1.41136706    1.23153901    1.11297202
 O         -2.43081403   -1.13902700    2.15270090
 H         -2.58161902   -2.86073208    0.32512301
 H         -0.41007999   -0.86056697    2.41262507
 H          0.02219800    0.04382600    0.21051601
 H         -2.95568204   -0.40537599   -0.41304699
 H         -0.43186700   -1.70667005   -1.51117301
 C         -2.52533007   -2.00083399    3.28651690
 H         -1.34414804    1.99700797    0.45018700
 H         -1.52734399   -4.42305994   -1.35414505
 H          0.04998800   -4.06240892   -0.60879302
 H         -2.39915204   -1.45887804   -2.82356691
 H         -2.19726110    1.34422505   -1.63605702
 H         -0.99803299   -5.92616510    0.33230299
 H         -3.54025698   -1.90430403    3.67063808
 H         -1.80951095   -1.69641995    4.05801487
 H         -2.33763504   -3.04108906    3.00744104
 C          3.20719790    1.32835805   -1.44512796
 C          1.76022196    0.76329100   -1.36211097
 C          3.93948197    0.98583502   -0.14226300
 C          3.79581690   -0.51799297    0.11942900
 C          2.29834604   -0.82730401    0.40633300
 N          1.54110205    0.37270001    0.03485500
 H          3.17645693    2.41044807   -1.58779597
 H          1.01079905    1.50495005   -1.63202906
 H          4.99403191    1.25549603   -0.22031000
 H          4.13386297   -1.08708596   -0.74895900
 H          2.11417103   -1.02350605    1.46192300
 H          3.71471095    0.88567698   -2.30371594
 H          1.62751305   -0.12437200   -1.97943604
 C          3.28162289    1.75136602    1.01060498
 H          4.39405012   -0.82237399    0.97979999
 H          1.92751098   -1.66269803   -0.18598001
 C          1.75078797    1.48631799    0.96295601
 H          3.46047711    2.82382202    0.91940397
 H          3.68856001    1.41721201    1.96718705
 H          1.19637895    2.34284210    0.58194202
 H          1.35284805    1.20215499    1.93682694
 H         -1.26889098    5.60066223   -1.59231198
 H         -2.76183105    5.66077089   -0.65331101
 O         -2.91344309    2.84386110   -1.57932198
 C         -2.25092101    5.14129305   -1.46928406
 C         -2.10487294    3.67754006   -1.08977103
 O         -1.17996597    3.37896991   -0.27868301
 H         -2.83838892    5.25651979   -2.37979889
