55
wb97x-d4 ma-def2-tzvp(-f) cpcm(dmso) E: -1285.247409549187, G: -1284.82525074
 C         -1.12421203   -1.65996504    1.17160594
 C         -1.09193003   -0.22516100    0.65049702
 C         -2.00371695   -0.04351600   -0.56608897
 O         -1.83049798    1.19774497   -1.20874405
 C         -1.71007597   -1.12121105   -1.60103798
 C         -1.74235594   -2.50816798   -0.97485501
 C         -1.29352105   -3.58562899   -1.94251502
 O         -1.37479603   -4.88323212   -1.36134100
 O         -0.82224602   -2.55755401    0.12320400
 O         -2.67408109   -1.07897902   -2.64519596
 O         -1.26381695    0.66330397    1.67535806
 O         -2.38166690   -1.89120305    1.73603404
 H         -2.75496697   -2.72918606   -0.62042302
 H         -0.33421600   -1.81309199    1.91621900
 H          0.00950500   -0.09174100    0.23040099
 H         -3.03884792   -0.16171400   -0.21622699
 H         -0.70561200   -0.93994600   -2.00849605
 C         -2.46657109   -3.14433289    2.41461897
 H         -1.15444398    1.62978196    1.37919903
 H         -1.94551599   -3.58586192   -2.81609392
 H         -0.26807600   -3.37025404   -2.26849890
 H         -2.74166393   -0.15496799   -2.91976905
 H         -2.23813009    1.92748106   -0.67450398
 H         -0.83734602   -4.87212801   -0.55967802
 H         -3.42965007   -3.16098404    2.92348695
 H         -1.65989494   -3.23587489    3.15028095
 H         -2.41154909   -3.97811508    1.70929897
 C          3.42997789    1.17604399    1.19720900
 C          1.95299494    0.70623600    1.34319198
 C          3.89237905    0.90304601   -0.23836300
 C          3.02758408    1.72308195   -1.20102000
 C          1.53406000    1.35343003   -0.97012198
 N          1.50478697    0.26989299    0.01954000
 H          4.05349779    0.63514900    1.91093802
 H          1.85743499   -0.14015000    2.02288604
 H          4.94236612    1.17918301   -0.35064501
 H          3.16784501    2.79117107   -1.02648604
 H          1.05350006    0.99250698   -1.87756395
 H          3.50154901    2.24174809    1.42185605
 H          1.29886103    1.51172602    1.67370200
 C          3.70739794   -0.58582300   -0.54984099
 H          3.30466509    1.50797200   -2.23478293
 H          0.95840901    2.18406105   -0.56492501
 C          2.19579697   -0.93954700   -0.43877599
 H          4.27959394   -1.19424105    0.15297100
 H          4.05859184   -0.81131297   -1.55819595
 H          2.01101804   -1.73019505    0.28689200
 H          1.76854801   -1.22569895   -1.39897096
 H         -1.95310104    5.58821821    1.91837704
 H         -2.43533397    5.85147619    0.22754300
 O         -0.85398698    3.15820408    1.22466099
 C         -1.72171295    5.34599495    0.87739700
 C         -1.78540802    3.83849597    0.70103401
 O         -2.75121689    3.34218097    0.06250600
 H         -0.71020800    5.70165491    0.67225200
