55
wb97x-d4 ma-def2-tzvp(-f) cpcm(dmso) E: -1285.245567746418, G: -1284.8252291000001
 C         -1.08451200   -1.32503796    1.44290996
 C         -1.05141902   -0.07655200    0.56637102
 C         -1.88301301   -0.21930100   -0.71496999
 O         -1.65200496    0.84802401   -1.59969199
 C         -1.54450703   -1.53239799   -1.41691995
 C         -1.59579301   -2.70210195   -0.43365699
 C         -1.11610496   -3.99775505   -1.05712402
 O         -1.26487195   -5.09904909   -0.16603900
 O         -0.72483402   -2.45426297    0.67766500
 O         -2.40257597   -1.76891398   -2.52587008
 O         -1.29610801    1.03838503    1.31850302
 O         -2.36040092   -1.43676805    2.00302792
 H         -2.62367511   -2.83135295   -0.07348800
 H         -0.32510599   -1.25639701    2.23069406
 H          0.06909500   -0.02266900    0.17868701
 H         -2.94024110   -0.25135601   -0.40966001
 H         -0.53427500   -1.45868695   -1.83166695
 C         -2.44767404   -2.47097898    2.98327088
 H         -1.24199700    1.90031898    0.78855002
 H         -1.71448696   -4.22034693   -1.94012105
 H         -0.06789300   -3.88351607   -1.36118805
 H         -3.31604004   -1.75662506   -2.21185994
 H         -2.16417193    1.64462101   -1.30234802
 H         -0.77081800   -4.88957882    0.63612998
 H         -2.32312107   -3.45701599    2.52728105
 H         -3.43892908   -2.39834809    3.42918992
 H         -1.68486297   -2.32994890    3.75704002
 C          3.33126807    1.69177103    0.93621498
 C          1.80237103    1.41448700    0.91785902
 C          3.96905208    0.95645303   -0.24686100
 C          3.20809889    1.32366097   -1.52596104
 C          1.76612699    0.75126499   -1.42502904
 N          1.57563400    0.32335499   -0.03344600
 H          3.76346993    1.34163904    1.87585902
 H          1.43006504    1.10271502    1.89336002
 H          5.02031994    1.23384404   -0.34083599
 H          3.17086506    2.40846610   -1.64496899
 H          1.62638295   -0.12155400   -2.06171489
 H          3.49936199    2.76742411    0.86328000
 H          1.23114395    2.27586007    0.57452399
 C          3.83929610   -0.55387402   -0.01665200
 H          3.69930410    0.90156800   -2.40425801
 H          1.00615597    1.49348497   -1.66098106
 C          2.34947896   -0.88062900    0.28995600
 H          4.45603609   -0.87358701    0.82490897
 H          4.16498995   -1.10038304   -0.90412498
 H          2.18718791   -1.10776496    1.34324896
 H          1.97346199   -1.70220196   -0.31830201
 H         -2.77000403    5.63818789    0.57326198
 H         -2.99083304    5.61420488   -1.18753099
 O         -1.10138702    3.40498805    0.31270599
 C         -2.32006598    5.33304405   -0.37607199
 C         -2.09911990    3.83057690   -0.34014699
 O         -2.92143011    3.08598495   -0.93774998
 H         -1.36688495    5.85462284   -0.47525901
