55
wb97x-d4 ma-def2-tzvp(-f) cpcm(dmso) E: -1285.246042053338, G: -1284.8251816200002
 C         -1.03816605   -1.38695300    1.46629596
 C         -0.93572402   -0.08270500    0.67493200
 C         -1.76038504   -0.10631200   -0.61297297
 O         -1.43227696    0.96798903   -1.46491504
 C         -1.48851502   -1.39723098   -1.37151396
 C         -1.63871002   -2.62109089   -0.47629499
 C         -1.25642002   -3.91680694   -1.18182003
 O         -2.22584605   -4.30879784   -2.14678693
 O         -0.74304497   -2.48848891    0.63095403
 O         -2.38727307   -1.52943897   -2.47001696
 O         -1.13166702    0.98920798    1.50084198
 O         -2.31806993   -1.46320498    2.02133489
 H         -2.67229199   -2.69791698   -0.12153200
 H         -0.27863601   -1.41601706    2.25595593
 H          0.17957900   -0.06358000    0.29993999
 H         -2.82261801   -0.07413500   -0.33582300
 H         -0.45634699   -1.37266195   -1.74259603
 C         -2.46382904   -2.55335498    2.93179488
 H         -1.28109598    1.86353695    1.01762295
 H         -0.26660699   -3.80225205   -1.64210105
 H         -1.20103002   -4.71587896   -0.44002199
 H         -2.28093004   -0.74311697   -3.02079296
 H         -2.01532888    1.75098896   -1.25783598
 H         -2.38415098   -3.54111600   -2.71490908
 H         -2.40887809   -3.51259995    2.41004896
 H         -3.44366789   -2.44630194    3.39561701
 H         -1.68571806   -2.51439595    3.70212507
 C          3.96182299   -0.53293198    0.60970497
 C          2.44844508   -0.73059702    0.90862203
 C          4.13056898    0.77753699   -0.16712500
 C          3.40584898    1.89417303    0.59464598
 C          1.87758601    1.61068594    0.53724200
 N          1.72331703    0.23104601    0.07293700
 H          4.33836985   -1.37327898    0.02291100
 H          2.10671091   -1.73318803    0.65296203
 H          5.18931818    1.01929796   -0.27351201
 H          3.74242711    1.92508101    1.63285303
 H          1.36432302    2.25877810   -0.17238100
 H          4.51033115   -0.50201398    1.55238903
 H          2.20450997   -0.51647699    1.94886005
 C          3.48137093    0.62011600   -1.54723203
 H          3.60298705    2.86774707    0.14309700
 H          1.40459096    1.70084405    1.51484501
 C          2.03481293    0.08114700   -1.35237598
 H          4.04272509   -0.08336300   -2.16419005
 H          3.45452905    1.58140695   -2.06430292
 H          1.95667303   -0.97687697   -1.60087299
 H          1.30139804    0.64561898   -1.92621005
 H         -1.98191595    5.90650320   -0.19726101
 H         -3.16278291    5.46129417    1.03297400
 O         -1.51972198    3.40943789    0.71727198
 C         -2.83653402    5.25745583    0.01076900
 C         -2.39426708    3.80807996   -0.10358000
 O         -2.90808606    3.08991790   -1.00377095
 H         -3.64170599    5.48517990   -0.68680102
