55
wb97x-d4 ma-def2-tzvp(-f) cpcm(dmso) E: -1285.246232697089, G: -1284.8247382000002
 C         -1.14569402   -1.24087799    1.60830402
 C         -0.98119098   -0.04495100    0.66974902
 C         -1.76951206   -0.20316900   -0.63125002
 O         -1.38898003    0.74929798   -1.59820902
 C         -1.51214504   -1.58311903   -1.22192097
 C         -1.74750197   -2.67537498   -0.18903200
 C         -1.48085701   -4.07631302   -0.71149701
 O         -0.17930201   -4.24335194   -1.26932204
 O         -0.87472898   -2.44429302    0.92361301
 O         -2.36308002   -1.81549394   -2.33664203
 O         -1.16676295    1.12418103    1.35631704
 O         -2.44103599   -1.20393002    2.13561702
 H         -2.79121900   -2.64236403    0.14489500
 H         -0.40628901   -1.19628596    2.41623807
 H          0.14391500   -0.09333700    0.32599801
 H         -2.83815908   -0.11082100   -0.39343700
 H         -0.46379900   -1.62775195   -1.53970695
 C         -2.64708209   -2.17223001    3.16379499
 H         -1.26148999    1.93918800    0.76761699
 H         -1.55629206   -4.77390194    0.12539300
 H         -2.25234103   -4.33082294   -1.44317496
 H         -2.29211998   -1.03379405   -2.90063095
 H         -1.94117200    1.57420301   -1.49354994
 H         -0.18939599   -3.90341592   -2.17106009
 H         -3.63481212   -1.98179996    3.58219099
 H         -1.88899696   -2.06504011    3.94762897
 H         -2.61033893   -3.18833089    2.76156092
 C          3.58770895   -0.04477900   -1.39451301
 C          2.12454104   -0.50078797   -1.11921299
 C          4.06365681    0.81636000   -0.21957700
 C          3.87825394    0.02633100    1.08014405
 C          2.35687399   -0.22338900    1.29351401
 N          1.67540598    0.22036199    0.07511400
 H          3.62630010    0.52739900   -2.32331300
 H          1.45812500   -0.24626100   -1.94197202
 H          5.11498499    1.07853603   -0.35057899
 H          4.40386391   -0.92858499    1.02111995
 H          1.95782197    0.35475001    2.12673712
 H          4.22259712   -0.92475599   -1.50936699
 H          2.05735397   -1.56788504   -0.91005802
 C          3.21010995    2.08690810   -0.15407901
 H          4.27500010    0.58236599    1.93105304
 H          2.13354802   -1.27926302    1.44355798
 C          1.71045303    1.67380595   -0.09456100
 H          3.37470102    2.70895100   -1.03534496
 H          3.46980309    2.67189503    0.73022300
 H          1.17789805    1.91311395   -1.01331902
 H          1.19410098    2.12825489    0.74989802
 H         -3.30347991    5.43219709   -1.52829695
 H         -1.77620697    5.86318302   -0.70811200
 O         -2.78502703    2.96068096   -1.41697598
 C         -2.66619992    5.23174286   -0.66776502
 C         -2.25482798    3.77017403   -0.60799903
 O         -1.40024805    3.44881010    0.26559201
 H         -3.20672488    5.48379803    0.24860901
