55
wb97x-d4 ma-def2-tzvp(-f) cpcm(dmso) E: -1285.246227919113, G: -1284.8247147200002
 C         -1.18769598   -1.25031495    1.57843602
 C         -1.00980902   -0.05373000    0.64317900
 C         -1.75787103   -0.22276700   -0.68037999
 O         -1.35945594    0.73218697   -1.63770700
 C         -1.46782196   -1.60036898   -1.26137698
 C         -1.72026002   -2.69383407   -0.23362200
 C         -1.42330599   -4.09250307   -0.74549598
 O         -0.10216000   -4.24826002   -1.25883198
 O         -0.88326597   -2.45143104    0.90368801
 O         -2.28466702   -1.84387803   -2.39896488
 O         -1.22964799    1.11403501    1.32201004
 O         -2.49789190   -1.22721004    2.06810904
 H         -2.77366590   -2.67206097    0.06948900
 H         -0.47251701   -1.19641399    2.40736103
 H          0.12494000   -0.08912500    0.33107299
 H         -2.83406210   -0.14223300   -0.47439799
 H         -0.41046500   -1.63323998   -1.54957700
 C         -2.72309804   -2.19707298    3.09073806
 H         -1.29854298    1.92910802    0.72941899
 H         -1.52048504   -4.79020214    0.08905400
 H         -2.16750097   -4.35445690   -1.50239396
 H         -2.20547795   -1.06300902   -2.96297097
 H         -1.91738200    1.55460203   -1.54523504
 H         -0.08401800   -3.90862703   -2.16055393
 H         -1.98961699   -2.08083701    3.89637589
 H         -2.66316295   -3.21293497    2.69070697
 H         -3.72476506   -2.01746607    3.47977209
 C          3.61310911   -0.00543600   -1.29496205
 C          2.14724112   -0.47632900   -1.06190002
 C          4.05020905    0.85061002   -0.10140000
 C          3.83465600    0.04975000    1.18703496
 C          2.30949402   -0.20932400    1.35757399
 N          1.65917599    0.23558900    0.12264400
 H          3.67098308    0.57456797   -2.21790791
 H          1.50124502   -0.22443099   -1.90159297
 H          5.10279179    1.12122595   -0.20146300
 H          4.36675787   -0.90196103    1.13475001
 H          1.88465595    0.36353701    2.18163896
 H          4.25843811   -0.87901199   -1.39986801
 H          2.08457208   -1.54487097   -0.85882002
 C          3.18570089    2.11442494   -0.05060400
 H          4.20547724    0.60124701    2.05246997
 H          2.08784890   -1.26694703    1.49749005
 C          1.68818498    1.69013906   -0.03879100
 H          3.37149310    2.74538708   -0.92124802
 H          3.41495109    2.69353199    0.84592301
 H          1.18156898    1.93009496   -0.97194099
 H          1.14309895    2.13652992    0.79171300
 H         -1.72771096    5.82778215   -0.89501601
 H         -3.09823394    5.52621984    0.17063899
 O         -2.76422310    2.94187498   -1.48754597
 C         -2.62799096    5.22213602   -0.76792699
 C         -2.24061799    3.75551391   -0.67848903
 O         -1.40558004    3.43572402    0.21429200
 H         -3.31362391    5.40446377   -1.59459603
