55
wb97x-d4 ma-def2-tzvp(-f) cpcm(dmso) E: -1285.245495066368, G: -1284.82463568
 C         -1.04541397   -1.36381400    1.35302103
 C         -0.94761598   -0.05038100    0.58498001
 C         -1.83445406   -0.02740600   -0.66402102
 O         -1.54285896    1.08894098   -1.47035599
 C         -1.63471901   -1.29970801   -1.48647702
 C         -1.66962302   -2.55399108   -0.61188501
 C         -1.24127603   -3.79136300   -1.37667000
 O         -1.36564004   -4.97039223   -0.58712900
 O         -0.75245702   -2.43541098    0.48294199
 O         -2.59497905   -1.39704001   -2.53145790
 O         -1.08190501    1.01203895    1.43764806
 O         -2.32193208   -1.45483696    1.91499400
 H         -2.68511200   -2.69899297   -0.22433700
 H         -0.28108701   -1.41069400    2.13704205
 H          0.15263000   -0.05111000    0.16747400
 H         -2.87849092    0.00518500   -0.31906101
 H         -0.66204602   -1.23745894   -1.98383403
 C         -2.46027398   -2.56927609    2.79691601
 H         -1.18788898    1.90424597    0.97762299
 H         -1.88330495   -3.92199707   -2.24745703
 H         -0.20645000   -3.66077495   -1.71788597
 H         -3.47636104   -1.36903000   -2.13756394
 H         -2.10596800    1.85461605   -1.17628598
 H         -0.82566202   -4.84540319    0.20290300
 H         -3.44237804   -2.48314905    3.26027298
 H         -1.68456101   -2.54319000    3.57014108
 H         -2.39525604   -3.51425195    2.25056410
 C          3.80688596    0.29643199    1.15338504
 C          2.32703304   -0.18118900    1.21666300
 C          4.10065079    0.77159399   -0.27359700
 C          3.25181794    2.01446605   -0.56204802
 C          1.76353598    1.67769003   -0.25605100
 N          1.69393599    0.23066799   -0.03770500
 H          4.46145010   -0.53152102    1.43015802
 H          2.24908495   -1.26548696    1.28916001
 H          5.16067600    1.00902796   -0.37850499
 H          3.56702995    2.85154796    0.06288300
 H          1.10217798    1.92780399   -1.08365202
 H          3.96606112    1.10986197    1.86389005
 H          1.78360498    0.27954000    2.04169607
 C          3.71058297   -0.33919400   -1.25518894
 H          3.35578108    2.31030989   -1.60777402
 H          1.40983105    2.16828704    0.64986497
 C          2.16814303   -0.54037201   -1.18993497
 H          4.21694183   -1.26994896   -0.99196601
 H          3.99361300   -0.07334000   -2.27482700
 H          1.89463496   -1.58437097   -1.04051995
 H          1.66597903   -0.15491700   -2.07660604
 H         -1.94907606    5.94581223   -0.40176299
 H         -2.63429403    5.67751312    1.20203304
 O         -1.33195996    3.48021197    0.71037400
 C         -2.68365502    5.36058712    0.15903500
 C         -2.32013392    3.89000797    0.03700100
 O         -3.00043702    3.16543698   -0.73966902
 H         -3.67481494    5.55817699   -0.24843401
