55
wb97x-d4 ma-def2-tzvp(-f) cpcm(dmso) E: -1285.245765713385, G: -1284.82462364
 C         -1.16579199   -1.17981398    1.54244101
 C         -1.08917296    0.01733000    0.59595603
 C         -1.88591003   -0.22174899   -0.68731898
 O         -1.64880800    0.75847298   -1.67090404
 C         -1.50662100   -1.56760299   -1.29274297
 C         -1.61159599   -2.68213511   -0.25756001
 C         -1.12535203   -4.00360680   -0.80795801
 O         -1.42002904   -5.03152323    0.13756900
 O         -0.78510702   -2.35834599    0.86664897
 O         -2.36599588   -1.87198699   -2.38374996
 O         -1.35621798    1.17636299    1.27024698
 O         -2.46475911   -1.24701798    2.05603409
 H         -2.65418410   -2.78450990    0.06334500
 H         -0.43802199   -1.06779599    2.35502601
 H          0.04158300    0.03982500    0.25016901
 H         -2.94959092   -0.24701600   -0.41248801
 H         -0.46541500   -1.51021695   -1.63948405
 C         -2.60474801   -2.22329402    3.08766603
 H         -1.31210494    2.00277901    0.68304002
 H         -1.63194501   -4.19545507   -1.75800705
 H         -0.04558200   -3.93991899   -0.98929900
 H         -2.41304803   -1.07245600   -2.92495894
 H         -2.16617608    1.58174503   -1.46407497
 H         -1.13340795   -5.87065697   -0.23942000
 H         -2.47214293   -3.23443890    2.69350791
 H         -3.61322093   -2.11686993    3.48584890
 H         -1.87408805   -2.04510403    3.88448000
 C          3.35055089    1.75150895    0.89179897
 C          1.87454796    1.30492902    1.10296297
 C          3.99694896    0.82106400   -0.14068700
 C          3.29999399    1.02111495   -1.48978305
 C          1.76853502    0.84349698   -1.28728795
 N          1.57489300    0.31387201    0.06814800
 H          3.87916207    1.70077598    1.84500897
 H          1.72432494    0.82888699    2.07151198
 H          5.06170797    1.04300904   -0.23057900
 H          3.49625492    2.01999092   -1.88285804
 H          1.34098697    0.13724300   -1.99668002
 H          3.37909198    2.78449106    0.53974301
 H          1.17652905    2.13436794    0.99505001
 C          3.79809594   -0.63133198    0.30639499
 H          3.66533995    0.29119101   -2.21500111
 H          1.23043799    1.78775597   -1.35269904
 C          2.27618194   -0.95582098    0.28579101
 H          4.19351006   -0.77472299    1.31396496
 H          4.31946993   -1.31642795   -0.36417100
 H          1.93533301   -1.37823701    1.22974896
 H          2.00614691   -1.62816799   -0.52748400
 H         -1.25820100    5.76136398   -1.14640403
 H         -2.58818889    5.80200720    0.00973300
 O         -2.89426494    3.05698991   -1.26658595
 C         -2.23471189    5.33254290   -0.91227901
 C         -2.09696507    3.83741999   -0.68062001
 O         -1.18016696    3.45867395    0.10540900
 H         -2.93808293    5.54701614   -1.71616304
