55
wb97x-d4 ma-def2-tzvp(-f) cpcm(dmso) E: -1285.246353010558, G: -1284.82442154
 C         -1.17517400   -0.85504699    1.74609804
 C         -1.04708898    0.12432500    0.57992101
 C         -1.81737196   -0.34925601   -0.65415400
 O         -1.50066197    0.40323299   -1.80357599
 C         -1.47026002   -1.80164695   -0.95282298
 C         -1.60905695   -2.68013906    0.28201699
 C         -1.18698001   -4.12083197    0.04831100
 O          0.13906100   -4.25536585   -0.45851699
 O         -0.79122400   -2.14885712    1.33119595
 O         -2.32216692   -2.31955600   -1.96676397
 O         -1.29538500    1.40279102    0.99950898
 O         -2.49205804   -0.80684298    2.21364903
 H         -2.65832901   -2.69165492    0.59938800
 H         -0.47707799   -0.59077102    2.54861403
 H          0.08665500    0.04708400    0.26974201
 H         -2.88964701   -0.27793700   -0.42649999
 H         -0.42743301   -1.83344901   -1.29058194
 C         -2.68598509   -1.56690502    3.40564108
 H         -1.36236703    2.07794595    0.24965800
 H         -1.21202695   -4.64482498    1.00600100
 H         -1.90864801   -4.59422302   -0.62290400
 H         -2.31223106   -1.67788506   -2.68920398
 H         -2.07949901    1.21435404   -1.83964002
 H          0.11839800   -4.10648489   -1.41040504
 H         -3.70835805   -1.38201904    3.73345089
 H         -1.98589301   -1.24336100    4.18373919
 H         -2.55031204   -2.63545704    3.21750903
 C          3.28215909    2.05709410    0.05085300
 C          1.76319206    1.72694099   -0.00630100
 C          4.06539202    0.75220698   -0.12783100
 C          3.55505204    0.03687100   -1.38408506
 C          2.08576798   -0.41041800   -1.13502002
 N          1.64187896    0.27125600    0.08522700
 H          3.52899408    2.51887202    1.00888002
 H          1.21398699    2.17047405    0.82379502
 H          5.13167906    0.96423602   -0.22227500
 H          3.59862590    0.70692801   -2.24498701
 H          2.00712991   -1.48334205   -0.96229303
 H          3.52150702    2.76730108   -0.74219400
 H          1.30937803    2.03874111   -0.94618601
 C          3.81119609   -0.14630499    1.08805001
 H          4.16229010   -0.84251702   -1.60458004
 H          1.42400396   -0.12283200   -1.95076704
 C          2.27416897   -0.27297300    1.29024804
 H          4.25595903    0.28098801    1.98814595
 H          4.24767590   -1.13402498    0.92703998
 H          1.92406297    0.31023601    2.14171195
 H          1.95834994   -1.30951595    1.40346897
 H         -1.87339103    5.58379316   -1.97022498
 H         -3.39067101    5.38561010   -1.09210396
 O         -1.46654904    3.43510389   -0.57805502
 C         -2.76049209    4.95536613   -1.87593806
 C         -2.36657310    3.54873395   -1.45857096
 O         -2.96468306    2.57560301   -1.99386299
 H         -3.31897402    4.94835520   -2.81152010
