55
wb97x-d4 ma-def2-tzvp(-f) cpcm(dmso) E: -1285.246494753527, G: -1284.8243546600002
 C         -1.18579197   -0.99802500    1.73164403
 C         -1.13124299    0.00769400    0.58259398
 C         -1.85291696   -0.50119603   -0.66910601
 O         -1.59429896    0.28551000   -1.80829597
 C         -1.38496804   -1.91497803   -0.98237997
 C         -1.50782001   -2.82134390    0.23625600
 C         -0.95515299   -4.22071600   -0.00670800
 O         -1.79722404   -4.99237013   -0.85563499
 O         -0.73013598   -2.26378489    1.29825902
 O         -2.15429401   -2.47726297   -2.04184508
 O         -1.48311806    1.25372505    1.02084696
 O         -2.49493003   -1.03824496    2.21778607
 H         -2.55910993   -2.89948606    0.53479898
 H         -0.48982400   -0.70225698    2.52566195
 H          0.01261100    0.03364800    0.27733499
 H         -2.92829990   -0.52293700   -0.44376701
 H         -0.32679999   -1.87291801   -1.27476501
 C         -2.62259793   -1.82404494    3.40273595
 H         -1.37505102    1.96891201    0.30610600
 H          0.05887000   -4.14573812   -0.41990700
 H         -0.89983499   -4.74393988    0.94979501
 H         -2.09896803   -1.86870801   -2.78989005
 H         -2.10731411    1.13469696   -1.76566005
 H         -1.96642601   -4.45925713   -1.64558995
 H         -2.42957902   -2.88025403    3.19669390
 H         -3.64740205   -1.70225596    3.75160694
 H         -1.92728996   -1.47077405    4.17212677
 C          3.21358204    1.86640096    1.04077005
 C          1.69287300    1.54384696    1.00627697
 C          3.90630102    1.05518794   -0.05899700
 C          3.18829489    1.30999005   -1.38933098
 C          1.74447703    0.73953801   -1.29177296
 N          1.52005398    0.39332199    0.11605100
 H          3.62631297    1.60847497    2.01811695
 H          1.30834997    1.27606595    1.99019396
 H          4.95525980    1.34629595   -0.13626900
 H          3.15102410    2.38068390   -1.59989297
 H          1.61839294   -0.16783400   -1.88102603
 H          3.35539007    2.93653989    0.88188797
 H          1.10695302    2.36716795    0.60057098
 C          3.79632211   -0.43463701    0.28330499
 H          3.71222401    0.81946898   -2.21133709
 H          0.99107099    1.46763599   -1.58633006
 C          2.29990697   -0.77491498    0.53922302
 H          4.37479687   -0.66954100    1.17828596
 H          4.17987299   -1.04163098   -0.53918803
 H          2.09298301   -0.94877702    1.59446001
 H          1.96692300   -1.63526297   -0.03977500
 H         -2.39540911    5.59660816   -1.16292500
 H         -2.74971509    5.00278521   -2.80385804
 O         -1.14374197    3.27167606   -0.52212399
 C         -2.06421208    4.92653799   -1.96058404
 C         -2.00386310    3.50768304   -1.42133605
 O         -2.80084395    2.64741302   -1.88133299
 H         -1.06466806    5.24557781   -2.26376104
