55
wb97x-d4 ma-def2-tzvp(-f) cpcm(dmso) E: -1285.245466739225, G: -1284.8243526800002
 C         -1.03525901   -1.40064394    1.31175303
 C         -0.96221697   -0.07128800    0.56893498
 C         -1.86763704   -0.03516500   -0.66790402
 O         -1.60424900    1.09666800   -1.46162498
 C         -1.66311097   -1.28965294   -1.51686704
 C         -1.67325103   -2.56068110   -0.66623002
 C         -1.24116898   -3.77882004   -1.45948398
 O         -1.34032094   -4.97309303   -0.68937600
 O         -0.74230802   -2.45230103    0.41781500
 O         -2.63551402   -1.37894297   -2.55157709
 O         -1.09574795    0.97047502    1.44621003
 O         -2.30335212   -1.51688802    1.88827300
 H         -2.68181801   -2.72405505   -0.26809701
 H         -0.26027599   -1.45371997    2.08479309
 H          0.13274500   -0.04812800    0.13511001
 H         -2.90664196   -0.02357100   -0.30631000
 H         -0.69700301   -1.20614302   -2.02440906
 C         -2.41978097   -2.65286899    2.74549389
 H         -1.16299701    1.87825596    1.00691903
 H         -1.89362800   -3.90189195   -2.32358599
 H         -0.21276601   -3.62956500   -1.81227899
 H         -3.51216888   -1.36528599   -2.14650011
 H         -2.13188910    1.86708403   -1.11953700
 H         -0.79233301   -4.85465717    0.09613300
 H         -1.63245595   -2.63910198    3.50723004
 H         -2.35619402   -3.58411002    2.17586803
 H         -3.39527798   -2.58538008    3.22557807
 C          3.71484399    0.55464000    1.20920205
 C          2.25299907    0.02678600    1.26745701
 C          4.07732916    0.80450302   -0.25944501
 C          3.22130203    1.96361601   -0.77983302
 C          1.72855794    1.64814997   -0.47603500
 N          1.67012000    0.24391100   -0.05830500
 H          4.37877512   -0.18728501    1.65576196
 H          2.21262598   -1.04188895    1.47725701
 H          5.13715696    1.04862499   -0.34894300
 H          3.49721503    2.89893508   -0.29030600
 H          1.09316301    1.76914406   -1.35125506
 H          3.80119896    1.47970700    1.78251004
 H          1.64977598    0.56598300    1.99835896
 C          3.75572610   -0.45571300   -1.07172704
 H          3.36235309    2.08638597   -1.85551906
 H          1.33748806    2.25464296    0.33984101
 C          2.21380305   -0.66803801   -1.06841302
 H          4.25148010   -1.32425296   -0.63358301
 H          4.09857988   -0.35125801   -2.10230803
 H          1.93776405   -1.68665004   -0.79776698
 H          1.76273704   -0.41040200   -2.02583289
 H         -3.33000803    5.42910385    1.13244200
 H         -3.02770805    5.78405905   -0.57283098
 O         -2.95714688    3.21255803   -0.62829798
 C         -2.58596492    5.36649084    0.33248901
 C         -2.22702098    3.90347290    0.13354801
 O         -1.22820497    3.45255709    0.76345801
 H         -1.71231198    5.94569683    0.63174599
