55
wb97x-d4 ma-def2-tzvp(-f) cpcm(dmso) E: -1285.242570974885, G: -1284.8242059600002
 C         -1.00481498   -1.28940499    1.35441506
 C         -0.88584203    0.04478900    0.61826301
 C         -1.76955903    0.09680900   -0.63005000
 O         -1.47169399    1.19304895   -1.47639203
 C         -1.56346297   -1.15615201   -1.47169805
 C         -1.69770598   -2.41541600   -0.62718302
 C         -1.35486305   -3.67106795   -1.40401399
 O         -1.53943300   -4.84210777   -0.61471999
 O         -0.76677799   -2.35556602    0.46027800
 O         -2.52431607   -1.21529198   -2.51775599
 O         -1.01010895    1.08645403    1.49910796
 O         -2.26924491   -1.35402906    1.94556201
 H         -2.71846604   -2.49318409   -0.23785201
 H         -0.22092000   -1.37302101    2.11638188
 H          0.21610001    0.03417200    0.20753300
 H         -2.81678605    0.13567100   -0.30022600
 H         -0.54841399   -1.11993504   -1.89139998
 C         -2.41842389   -2.47909093    2.81176496
 H         -1.26139796    1.95295703    1.03823602
 H         -2.01702595   -3.75952911   -2.26525903
 H         -0.31950501   -3.60204506   -1.76095295
 H         -2.49500108   -0.36507300   -2.97500300
 H         -1.64608896    2.02843904   -0.99263799
 H         -0.99092698   -4.74574995    0.17357700
 H         -1.62324703   -2.48860788    3.56545806
 H         -2.39506006   -3.41593695    2.24844408
 H         -3.38555408   -2.37208200    3.30155897
 C          3.88079405   -0.86497802   -0.51998597
 C          2.37625408   -1.10248601   -0.19736899
 C          4.21169186    0.60855198   -0.25789201
 C          3.76243401    0.97648603    1.16041100
 C          2.21137595    0.86419398    1.23197901
 N          1.77486098    0.22050400   -0.00739500
 H          4.07973719   -1.11627102   -1.56362498
 H          1.85518205   -1.60387695   -1.01166797
 H          5.28425694    0.77753401   -0.36730099
 H          4.21637106    0.30245399    1.88943601
 H          1.73046005    1.83966506    1.28859794
 H          4.48790216   -1.51792705    0.10906300
 H          2.23762989   -1.66797101    0.72305101
 C          3.43593502    1.46978605   -1.26051903
 H          4.05910492    1.99672401    1.40836298
 H          1.88371205    0.25115800    2.07110310
 C          1.92923403    1.08904099   -1.17840898
 H          3.79342103    1.29591298   -2.27676105
 H          3.56413293    2.52908301   -1.02957904
 H          1.59523594    0.53116798   -2.05201006
 H          1.29016602    1.95987201   -1.04219997
 H         -2.49797511    5.65988016   -0.47688800
 H         -4.15327787    5.39608908    0.13552800
 O         -1.66023397    3.24930191    0.24066401
 C         -3.27356601    4.91366720   -0.28898001
 C         -2.73010612    3.83896303    0.64046103
 O         -3.31350088    3.58312011    1.70636904
 H         -3.53269911    4.46130610   -1.24987805
