55
wb97x-d4 ma-def2-tzvp(-f) cpcm(dmso) E: -1285.246066891184, G: -1284.82418617
 C         -1.12056601   -1.25510299    1.59254301
 C         -0.94942600   -0.06082700    0.65186697
 C         -1.70244300   -0.23156500   -0.66859698
 O         -1.29588604    0.71467000   -1.63017905
 C         -1.42864895   -1.61520100   -1.24078500
 C         -1.67356801   -2.70685196   -0.20765500
 C         -1.31633103   -4.09754276   -0.71787798
 O         -2.25614405   -4.57609177   -1.67336595
 O         -0.82329702   -2.45970201    0.91611499
 O         -2.26344109   -1.85946798   -2.36987591
 O         -1.16793597    1.10795999    1.32784605
 O         -2.42545891   -1.23172402    2.09158111
 H         -2.72434306   -2.69865608    0.10175700
 H         -0.39699301   -1.20279396    2.41403890
 H          0.18698500   -0.09258300    0.33498701
 H         -2.77698588   -0.13980199   -0.45981699
 H         -0.37572601   -1.66614199   -1.54468501
 C         -2.64588094   -2.20770097    3.11017799
 H         -1.26355696    1.91812801    0.73147601
 H         -0.30168200   -4.08347607   -1.13599706
 H         -1.33263099   -4.79310989    0.12339300
 H         -2.10365605   -1.14471996   -2.99980807
 H         -1.86526501    1.53140295   -1.55459905
 H         -2.34961200   -3.88737011   -2.34697390
 H         -3.64130807   -2.02295303    3.51232600
 H         -1.90157795   -2.10311294    3.90731001
 H         -2.59888697   -3.22075200    2.70160699
 C          3.66856194    0.04053600   -1.29542804
 C          2.20987010   -0.45106801   -1.06155598
 C          4.09747410    0.89504600   -0.09795400
 C          3.89147305    0.08627400    1.18686795
 C          2.36933804   -0.18727200    1.35849595
 N          1.71199000    0.25205201    0.12469000
 H          3.71703601    0.62688601   -2.21493912
 H          1.55869901   -0.20871601   -1.90016198
 H          5.14688206    1.17793095   -0.19747999
 H          4.43230581   -0.86023700    1.12924302
 H          1.93992305    0.38066700    2.18359303
 H          4.32489920   -0.82397097   -1.40720403
 H          2.16347599   -1.52055705   -0.85911500
 C          3.21853900    2.14863396   -0.04043900
 H          4.25882912    0.63700902    2.05427694
 H          2.15823102   -1.24712300    1.49814606
 C          1.72606003    1.70742297   -0.03397000
 H          3.39858699    2.78736496   -0.90661699
 H          3.44002008    2.72448707    0.86016500
 H          1.21929705    1.94342101   -0.96805400
 H          1.17398095    2.14621496    0.79596603
 H         -3.38095307    5.33422422   -1.59138799
 H         -1.77458000    5.79197884   -0.96750402
 O         -1.41406906    3.41752696    0.21064900
 C         -2.66052604    5.17757416   -0.78944403
 C         -2.24546909    3.71918702   -0.69186401
 O         -2.74130607    2.89497089   -1.50775695
 H         -3.09429598    5.49463797    0.16197400
