55
wb97x-d4 ma-def2-tzvp(-f) cpcm(dmso) E: -1285.242451853288, G: -1284.82418267
 C         -1.07257295   -1.32476294    1.31024206
 C         -0.89429402    0.00262000    0.57252598
 C         -1.73234797    0.07516700   -0.70750099
 O         -1.35949099    1.14586103   -1.55655003
 C         -1.56284904   -1.19548702   -1.53092098
 C         -1.77090001   -2.43607306   -0.67553699
 C         -1.47979200   -3.71818089   -1.42924905
 O         -1.74763000   -4.86699915   -0.63090497
 O         -0.85380799   -2.40269089    0.42514199
 O         -2.50472593   -1.22362304   -2.59546804
 O         -1.02296901    1.05239499    1.44281697
 O         -2.34978795   -1.34329200    1.87654400
 H         -2.79963112   -2.45922995   -0.30072799
 H         -0.30810601   -1.43289304    2.08850598
 H          0.22404200   -0.03110900    0.20245200
 H         -2.78644300    0.16553500   -0.41086501
 H         -0.53913403   -1.20947397   -1.92988801
 C         -2.55574608   -2.46172309    2.73969102
 H         -1.21865201    1.92535102    0.96544099
 H         -2.12607694   -3.78097796   -2.30469298
 H         -0.43459800   -3.71133590   -1.76298404
 H         -2.42726302   -0.38165101   -3.06225491
 H         -1.51182401    1.99423206   -1.08793902
 H         -1.21201098   -4.79200220    0.16847900
 H         -3.52581191   -2.31784201    3.21397495
 H         -1.77367401   -2.50152111    3.50598788
 H         -2.55923510   -3.39887190    2.17638707
 C          3.93577003   -0.80382299   -0.39401600
 C          2.39618301   -1.04329395   -0.39424399
 C          4.20868397    0.66970497   -0.07150800
 C          3.69502711    0.97919399    1.33925104
 C          2.19507289    0.57061601    1.41981900
 N          1.77740300    0.20157599    0.06743500
 H          4.33983421   -1.06266105   -1.37406194
 H          2.01315689   -1.25827098   -1.39098203
 H          5.27952385    0.87188101   -0.13205200
 H          4.25901318    0.42028800    2.08769894
 H          1.56099296    1.38898301    1.75934196
 H          4.40796185   -1.44831598    0.34982699
 H          2.10453796   -1.84174597    0.28656200
 C          3.45031095    1.54591799   -1.07302403
 H          3.80243111    2.04355693    1.55590105
 H          2.04295897   -0.29563299    2.06296992
 C          1.92460406    1.30103505   -0.89093298
 H          3.74415708    1.29612100   -2.09427810
 H          3.66991210    2.60128689   -0.90364301
 H          1.43948102    1.00697196   -1.81924295
 H          1.41407597    2.17037702   -0.47829601
 H         -2.22333908    5.65681314   -0.66294301
 H         -3.91476703    5.46888781   -0.12688001
 O         -3.21632600    3.66780996    1.52287400
 C         -3.03545594    4.94444895   -0.49906200
 C         -2.57905889    3.87059689    0.47675100
 O         -1.52126801    3.22412896    0.13653000
 H         -3.26554108    4.48213005   -1.46249998
