55
wb97x-d4 ma-def2-tzvp(-f) cpcm(dmso) E: -1285.246529965799, G: -1284.82416123
 C         -1.14356506   -1.21395099    1.58230400
 C         -1.09003699   -0.03874600    0.60650003
 C         -1.87483799   -0.31812400   -0.67736000
 O         -1.63192296    0.63572299   -1.68466794
 C         -1.46469796   -1.67365801   -1.23279703
 C         -1.56810701   -2.76550889   -0.17483699
 C         -1.05234802   -4.11273909   -0.66684502
 O         -1.92618406   -4.70790195   -1.61865497
 O         -0.74423301   -2.40673399    0.93698299
 O         -2.29549599   -2.03395510   -2.33372402
 O         -1.37868702    1.13045502    1.25317705
 O         -2.43899798   -1.29203904    2.09937596
 H         -2.61090207   -2.87446690    0.14337000
 H         -0.41538599   -1.06943798    2.38903308
 H          0.04252900   -0.00290100    0.26264799
 H         -2.94113588   -0.34735799   -0.41404799
 H         -0.41825601   -1.61158597   -1.56165099
 C         -2.55600309   -2.22639608    3.17210603
 H         -1.31659305    1.94417596    0.64920902
 H         -0.04402800   -3.98648190   -1.08193898
 H         -0.99168003   -4.79504108    0.18324800
 H         -2.24556804   -1.31375301   -2.97574902
 H         -2.14656496    1.46577406   -1.50080395
 H         -2.10979295   -4.03760910   -2.29253602
 H         -1.83668900   -1.99034595    3.96399903
 H         -2.38976192   -3.24919391    2.82329512
 H         -3.57003903   -2.13432288    3.55941391
 C          3.26685095    1.30412805   -1.30293405
 C          1.80997705    0.76107800   -1.26076901
 C          3.97521210    0.90063602   -0.00461600
 C          3.80856705   -0.61039901    0.19425000
 C          2.30283499   -0.91261399    0.44296601
 N          1.56553495    0.31248999    0.11525400
 H          3.25606894    2.39114499   -1.40549099
 H          1.07569003    1.52587104   -1.50663304
 H          5.03426504    1.15869296   -0.05705700
 H          4.15487623   -1.14844298   -0.69052798
 H          2.09952903   -1.15518403    1.48550999
 H          3.77923894    0.88512200   -2.17049694
 H          1.67098296   -0.09611600   -1.91834199
 C          3.31111407    1.62908900    1.16836905
 H          4.38845110   -0.95651698    1.05143297
 H          1.93168902   -1.71523905   -0.19289599
 C          1.77858996    1.38140094    1.09409595
 H          3.50182605    2.70226312    1.11915398
 H          3.70392609    1.25584400    2.11631894
 H          1.23604798    2.25988698    0.74737298
 H          1.36834502    1.05851305    2.05057812
 H         -2.83754706    5.42256117   -1.90464795
 H         -1.18929398    5.65137386   -1.25161004
 O         -1.15218604    3.37575793    0.02476700
 C         -2.17754698    5.22914982   -1.05968201
 C         -2.05905390    3.74078798   -0.77936602
 O         -2.86434102    2.95227695   -1.34309900
 H         -2.58066702    5.72258282   -0.17095099
