55
wb97x-d4 ma-def2-tzvp(-f) cpcm(dmso) E: -1285.244339179483, G: -1284.8240467
 C         -1.17342997   -1.38863504    1.43844199
 C         -1.14690495   -0.08910600    0.64320302
 C         -1.99404204   -0.16548100   -0.63369203
 O         -1.80218506    0.95570803   -1.46112895
 C         -1.62551701   -1.42081797   -1.41999304
 C         -1.62295794   -2.66171598   -0.52041298
 C         -1.14077103   -3.90692711   -1.23279405
 O          0.16373800   -3.68304396   -1.76780403
 O         -0.77812803   -2.46301699    0.61761999
 O         -2.49228096   -1.61796701   -2.53006697
 O         -1.38256299    0.98121899    1.46138501
 O         -2.45787191   -1.55487502    1.96864498
 H         -2.65024710   -2.85403609   -0.18489000
 H         -0.43093899   -1.35328698    2.24439812
 H         -0.03063100   -0.01691000    0.25356799
 H         -3.04548502   -0.24175100   -0.31652901
 H         -0.62849700   -1.28100097   -1.84330106
 C         -2.53709602   -2.62917399    2.90497208
 H         -1.24479699    1.87117696    0.99100602
 H         -1.12555301   -4.73309708   -0.51348197
 H         -1.85028696   -4.14804316   -2.02966595
 H         -3.39898896   -1.67500603   -2.20191789
 H         -2.24218297    1.75121605   -1.06905198
 H          0.43499100   -4.48533106   -2.22695994
 H         -1.79731703   -2.49694300    3.70230794
 H         -2.37242889   -3.59245205    2.41439199
 H         -3.54010892   -2.60344410    3.32942510
 C          3.66524005   -0.64449102   -0.45019600
 C          2.18377900   -0.98743898   -0.12544200
 C          3.88908505    0.85066599   -0.19687299
 C          3.41047502    1.19208002    1.21877301
 C          1.87148798    0.97733998    1.28457999
 N          1.48251200    0.28942800    0.05079500
 H          3.88247991   -0.88635999   -1.49253595
 H          1.70030904   -1.53839600   -0.93055499
 H          4.94687986    1.09633696   -0.30502799
 H          3.90683603    0.55209303    1.95092905
 H          1.32684696    1.91948104    1.32462204
 H          4.31905079   -1.24757004    0.18195300
 H          2.08533311   -1.55027294    0.80173898
 C          3.05552411    1.64832199   -1.20586097
 H          3.63771796    2.23054409    1.46484399
 H          1.58120096    0.35484299    2.13066602
 C          1.58065295    1.16058898   -1.12663603
 H          3.42877603    1.49709702   -2.22010994
 H          3.10664606    2.71528292   -0.97943097
 H          1.29239404    0.57326502   -1.99740696
 H          0.87891102    1.98257899   -0.99725598
 H         -2.62603211    5.79208517   -0.81927299
 H         -0.91263098    5.79763508   -0.30697200
 O         -0.93869299    3.34620190    0.56427598
 C         -1.91216099    5.41936016   -0.08530100
 C         -1.89923000    3.90067196   -0.04881000
 O         -2.83627200    3.27193689   -0.60755599
 H         -2.19463301    5.78944397    0.90438998
