55
wb97x-d4 ma-def2-tzvp(-f) cpcm(dmso) E: -1285.246235687249, G: -1284.8239954300002
 C         -1.20021296   -1.19575500    1.46423697
 C         -1.10120201    0.00669700    0.52686000
 C         -1.84550202   -0.23529100   -0.78738201
 O         -1.58167505    0.75118601   -1.75785601
 C         -1.42804694   -1.57363403   -1.38406599
 C         -1.54212105   -2.69707108   -0.35905400
 C         -0.99586999   -4.00527000   -0.90126300
 O         -1.19027603   -5.09729004   -0.00653300
 O         -0.76963699   -2.36305809    0.79848999
 O         -2.25066805   -1.88970304   -2.50022006
 O         -1.40701604    1.16063499    1.19368196
 O         -2.51811790   -1.28939700    1.92183399
 H         -2.59492302   -2.82662702   -0.08044900
 H         -0.50981700   -1.07579601    2.30789399
 H          0.04297100    0.04001900    0.23001900
 H         -2.91837311   -0.27362600   -0.55263102
 H         -0.37848201   -1.49662900   -1.70093203
 C         -2.68107390   -2.27327704    2.94302893
 H         -1.35327804    1.98897004    0.61036003
 H         -1.45947802   -4.20801783   -1.87071705
 H          0.08331500   -3.90946102   -1.04466200
 H         -2.28764105   -1.09322906   -3.04654408
 H         -2.11505508    1.56950998   -1.57244694
 H         -2.13465810   -5.28916883    0.03046400
 H         -1.99232697   -2.08031893    3.77302003
 H         -2.50470209   -3.27905989    2.55214500
 H         -3.70905995   -2.19390702    3.29485607
 C          3.38563800    1.05912602   -1.30797994
 C          1.84614098    0.87794298   -1.18708706
 C          4.01314878    0.82450300    0.06943900
 C          3.79345489   -0.63872200    0.46880299
 C          2.27548504   -0.96447998    0.35958499
 N          1.58485103    0.31110099    0.14168800
 H          3.60103512    2.06735706   -1.66556001
 H          1.31219900    1.82471097   -1.25240195
 H          5.08083916    1.04857397    0.04016800
 H          4.35113287   -1.30664098   -0.18973300
 H          1.88772404   -1.41392195    1.27215302
 H          3.78723502    0.34719899   -2.03190589
 H          1.45459402    0.19250201   -1.93660605
 C          3.31361103    1.72839904    1.09093499
 H          4.13503790   -0.80668998    1.49213398
 H          2.04958296   -1.61356795   -0.48536301
 C          1.83115900    1.27256596    1.21787298
 H          3.35549498    2.76957989    0.76528698
 H          3.79494691    1.65660906    2.06753802
 H          1.13579500    2.10292792    1.10113299
 H          1.63627195    0.76814598    2.16389704
 H         -1.28101599    5.75256777   -1.25043905
 H         -2.59256697    5.78874683   -0.07390400
 O         -1.22380805    3.45231795    0.04624800
 C         -2.25373006    5.32205820   -1.00245404
 C         -2.10584402    3.82633591   -0.78074300
 O         -2.85843205    3.04156899   -1.41770506
 H         -2.96705604    5.53775883   -1.79713595
