55
wb97x-d4 ma-def2-tzvp(-f) cpcm(dmso) E: -1285.244672665586, G: -1284.8239905300002
 C         -1.09815800   -1.38536406    1.38422406
 C         -1.03853703   -0.05988300    0.63479000
 C         -1.89880395   -0.05980800   -0.63311398
 O         -1.65051103    1.07743096   -1.42644298
 C         -1.60918105   -1.30335200   -1.46270299
 C         -1.60206997   -2.57703900   -0.61106700
 C         -1.05753005   -3.78173304   -1.37271798
 O         -1.84443104   -4.08850622   -2.52641511
 O         -0.73455298   -2.43652511    0.51475400
 O         -2.60243201   -1.38830197   -2.47827506
 O         -1.24172902    0.97975200    1.49846601
 O         -2.38393402   -1.54041505    1.90977097
 H         -2.62529993   -2.78533792   -0.27595001
 H         -0.35158101   -1.40462101    2.18675399
 H          0.07785400   -0.00228700    0.24062800
 H         -2.94919300   -0.09080200   -0.31263101
 H         -0.61462599   -1.18605804   -1.91595900
 C         -2.49886799   -2.67490697    2.76905894
 H         -1.19019401    1.89165699    1.05846703
 H         -0.05019000   -3.55661607   -1.73118103
 H         -1.00529206   -4.64120913   -0.69879103
 H         -2.49832797   -2.25877094   -2.89310598
 H         -2.12989092    1.86102605   -1.05132902
 H         -2.63779712   -4.55511189   -2.23621297
 H         -2.39116192   -3.60670495    2.20719004
 H         -3.49150395   -2.63140893    3.21561909
 H         -1.73856199   -2.63655210    3.55688310
 C          3.82912588   -0.68511498    0.21197601
 C          2.30621099   -1.00178194    0.18873399
 C          4.03033686    0.78275800   -0.17969000
 C          3.40305305    1.67438495    0.89762700
 C          1.93086803    1.22065401    1.11725700
 N          1.60653996    0.27990401    0.04268000
 H          4.34269905   -1.34583902   -0.48843601
 H          2.02728796   -1.63094997   -0.65539098
 H          5.09492588    1.00287902   -0.27594200
 H          3.94782090    1.58852303    1.83918595
 H          1.23365998    2.05604410    1.06422997
 H          4.23135710   -0.86897397    1.21029699
 H          1.97324097   -1.47147906    1.11291099
 C          3.31505990    1.03992295   -1.50937796
 H          3.42656589    2.71976805    0.58366501
 H          1.79999804    0.69964898    2.06519103
 C          1.78522503    0.87194997   -1.28878796
 H          3.66107297    0.33364600   -2.26681590
 H          3.51605105    2.05059099   -1.86854696
 H          1.33757699    0.20628500   -2.02458000
 H          1.25869799    1.82466400   -1.29949796
 H         -1.31909204    5.96369410    0.42115000
 H         -2.80754399    5.58090401    1.29054201
 O         -1.05223095    3.43083310    0.76882797
 C         -2.27004409    5.43429995    0.34884200
 C         -2.03793406    3.94459891    0.16213700
 O         -2.84177589    3.29477906   -0.55749601
 H         -2.87225199    5.84485483   -0.46140301
