55
wb97x-d4 ma-def2-tzvp(-f) cpcm(dmso) E: -1285.243933469724, G: -1284.8239479600002
 C         -1.14715004   -1.02106094    1.67085397
 C         -1.01919603    0.05855700    0.60152602
 C         -1.81036305   -0.25866401   -0.67100602
 O         -1.44437301    0.61109799   -1.71657300
 C         -1.55636299   -1.69919300   -1.11329198
 C         -1.65318894   -2.68349290    0.05512500
 C         -1.26813495   -4.09610510   -0.32721800
 O          0.04974600   -4.10562992   -0.87505603
 O         -0.79487598   -2.27342010    1.12583494
 O         -2.44287491   -2.08278608   -2.15753388
 O         -1.22988701    1.29562402    1.14878297
 O         -2.45503497   -0.99582702    2.16590595
 H         -2.69149804   -2.71288204    0.40828800
 H         -0.43133101   -0.84565902    2.48197699
 H          0.10549800   -0.00749600    0.26041400
 H         -2.87751698   -0.14671500   -0.42798999
 H         -0.55391300   -1.75678897   -1.54129100
 C         -2.63320899   -1.84029603    3.30240607
 H         -1.29578805    2.04483294    0.47398099
 H         -1.31772006   -4.72355509    0.56938201
 H         -1.99355304   -4.46786880   -1.05685198
 H         -3.34968090   -1.97480798   -1.84295106
 H         -2.00789499    1.42951095   -1.67627096
 H          0.25972199   -5.01216507   -1.12371302
 H         -1.92575204   -1.56947601    4.09381914
 H         -2.49552989   -2.89220905    3.03715801
 H         -3.65260410   -1.68418300    3.65366197
 C          3.21397400    2.09382892   -0.28554001
 C          1.70805395    1.70180297   -0.24907801
 C          4.05292082    0.81403100   -0.21397200
 C          3.61001301   -0.13787900   -1.33100402
 C          2.12993312   -0.55306500   -1.07800198
 N          1.64781499    0.26752201    0.03599300
 H          3.44835997    2.74685407    0.55722803
 H          1.16676402    2.22879004    0.53547400
 H          5.11156893    1.05442905   -0.32651100
 H          3.69323397    0.35357001   -2.30213809
 H          2.03892994   -1.59874701   -0.78683197
 H          3.41873908    2.63982201   -1.20785606
 H          1.21379805    1.87111402   -1.20416403
 C          3.80956101    0.13634001    1.13819802
 H          4.23616314   -1.03138697   -1.34556401
 H          1.49727798   -0.35877699   -1.94324505
 C          2.27877688   -0.08212900    1.31089902
 H          4.17926407    0.75839603    1.95498097
 H          4.32610416   -0.82435203    1.17925894
 H          1.85577905    0.56524497    2.07898211
 H          2.03808403   -1.12042904    1.53673995
 H         -1.66226494    5.71391201   -1.62287903
 H         -2.98265004    5.65123796   -0.45710900
 O         -2.87465096    2.83270311   -1.70765400
 C         -2.58085394    5.18425512   -1.35984397
 C         -2.25861406    3.72774100   -1.06776297
 O         -1.37991703    3.49843097   -0.18831700
 H         -3.30370212    5.27739906   -2.16965199
