55
wb97x-d4 ma-def2-tzvp(-f) cpcm(dmso) E: -1285.243696083392, G: -1284.82394576
 C         -1.19302297   -1.61563897    1.41949701
 C         -1.13826299   -0.23091400    0.77660400
 C         -2.01076698   -0.13895400   -0.47823501
 O         -1.72927904    1.01161301   -1.25776100
 C         -1.76664197   -1.33598697   -1.38963604
 C         -1.81930900   -2.65457392   -0.63055700
 C         -1.41133404   -3.84629798   -1.47859895
 O         -0.09157700   -3.72220302   -2.00047112
 O         -0.89450502   -2.60856605    0.46256900
 O         -2.74833894   -1.38102996   -2.41804790
 O         -1.31807995    0.74108702    1.72554004
 O         -2.46039796   -1.78200698    1.98510504
 H         -2.83575010   -2.82492399   -0.25887099
 H         -0.41645500   -1.71103096    2.18700790
 H         -0.03540200   -0.14397600    0.36794001
 H         -3.06162906   -0.14290801   -0.15802500
 H         -0.77012199   -1.23119295   -1.83099103
 C         -2.56388688   -2.96540189    2.77719593
 H         -1.61432004    1.62046099    1.32265198
 H         -1.50152302   -4.75367117   -0.87108803
 H         -2.08459592   -3.93004298   -2.33209705
 H         -2.74409890   -0.51732600   -2.84976101
 H         -1.96166801    1.81193697   -0.73592800
 H          0.50987500   -3.63692904   -1.25046802
 H         -2.49989009   -3.86265612    2.15552711
 H         -3.53579712   -2.93070292    3.26796794
 H         -1.77072895   -2.98958802    3.53258610
 C          3.74335408   -0.04402500    0.79497302
 C          2.25488997   -0.38324001    1.09513295
 C          3.78269792    1.04947805   -0.27834901
 C          2.90725589    2.22099590    0.18108700
 C          1.42775798    1.74201298    0.22684699
 N          1.44895601    0.28659201    0.07013300
 H          4.26341391   -0.93739599    0.44368601
 H          2.05930710   -1.45366895    1.03642297
 H          4.80922890    1.38621199   -0.43288299
 H          3.22074294    2.56172395    1.16980195
 H          0.83621901    2.15325189   -0.58965600
 H          4.22681904    0.29510900    1.71244001
 H          1.93533397   -0.00683400    2.06655502
 C          3.21213198    0.48216400   -1.58271801
 H          2.98787403    3.06142092   -0.51024902
 H          0.94673800    1.98023796    1.17470300
 C          1.81099200   -0.12837300   -1.28797400
 H          3.86389709   -0.29541901   -1.98431802
 H          3.12144899    1.27176702   -2.33122206
 H          1.82155001   -1.21768296   -1.31303704
 H          1.05331504    0.24539600   -1.97467196
 H         -2.51783895    5.18486977   -0.68541700
 H         -1.05891597    4.44441319   -1.34075904
 O         -2.13621902    2.90289307    0.58405101
 C         -1.47921503    4.93478918   -0.45817900
 C         -1.42801595    3.96697497    0.71302402
 O         -0.72938001    4.22421217    1.70699096
 H         -0.91683799    5.84354019   -0.24607000
