55
wb97x-d4 ma-def2-tzvp(-f) cpcm(dmso) E: -1285.243457000117, G: -1284.82381847
 C         -1.21071994   -1.15153003    1.68169606
 C         -1.18837905   -0.05991600    0.61043900
 C         -1.95057702   -0.45776400   -0.65738302
 O         -1.65816796    0.38233301   -1.76025903
 C         -1.58105099   -1.87213600   -1.09069598
 C         -1.64437401   -2.84877300    0.07406000
 C         -1.13624597   -4.22647476   -0.30208501
 O         -1.25216305   -5.14400196    0.78061497
 O         -0.78973901   -2.37869501    1.12439704
 O         -2.47036791   -2.32820296   -2.10208201
 O         -1.51144600    1.15029204    1.16415596
 O         -2.50093007   -1.21703100    2.21319604
 H         -2.67341900   -2.92609596    0.43971199
 H         -0.48416001   -0.92733598    2.47078800
 H         -0.05454300   -0.01456300    0.26752299
 H         -3.02367401   -0.43126699   -0.42258701
 H         -0.55286199   -1.85429394   -1.47507703
 C         -2.58897209   -2.07947612    3.34780002
 H         -1.78664696    1.83049798    0.46745700
 H         -1.73547900   -4.62334490   -1.12142706
 H         -0.09364700   -4.14778709   -0.63469899
 H         -2.47437191   -1.66021001   -2.79947400
 H         -1.94745398    1.29886901   -1.55191100
 H         -0.75541902   -4.77770805    1.52257299
 H         -3.60381007   -1.98804498    3.73303008
 H         -1.87324297   -1.77094901    4.11757183
 H         -2.39635801   -3.11899090    3.06876612
 C          2.74017000    2.45627689   -0.29520199
 C          1.30300295    1.86325800   -0.29008299
 C          3.74194789    1.30259097   -0.18011700
 C          3.45050502    0.27514100   -1.28016603
 C          2.03981996   -0.33702701   -1.03477800
 N          1.42413998    0.44231901    0.04428300
 H          2.86201096    3.14811206    0.54045498
 H          0.66767699    2.33905411    0.45529401
 H          4.76096392    1.67992496   -0.28218400
 H          3.47935009    0.75315899   -2.26118708
 H          2.09099293   -1.37593901   -0.71054202
 H          2.89265299    3.01176095   -1.22206700
 H          0.82577997    1.93192804   -1.26669502
 C          3.56542897    0.63049102    1.18475604
 H          4.19480991   -0.52272302   -1.26777101
 H          1.40377605   -0.26149100   -1.91563702
 C          2.07372904    0.21889700    1.34008896
 H          3.83606696    1.31499505    1.99029005
 H          4.20274782   -0.25269100    1.25895703
 H          1.55412495    0.82748401    2.08001494
 H          1.96614099   -0.83492202    1.59532106
 H         -0.74558097    3.63027191   -2.82311201
 H         -0.90932602    5.32421303   -2.30279803
 O         -2.23267794    2.77264905   -0.70600098
 C         -1.37513995    4.33964491   -2.27737093
 C         -1.53552794    3.84240699   -0.84997100
 O         -0.99379998    4.45148420    0.08682400
 H         -2.34557891    4.37132788   -2.77670002
