55
wb97x-d4 ma-def2-tzvp(-f) cpcm(dmso) E: -1285.244412155181, G: -1284.82371571
 C         -1.06164300   -1.39520299    1.41534901
 C         -0.93205202   -0.06862400    0.67499000
 C         -1.78008401   -0.00301600   -0.59835202
 O         -1.40827000    1.10589802   -1.38423800
 C         -1.60582399   -1.27719295   -1.42345202
 C         -1.69506001   -2.54025292   -0.56513500
 C         -1.36637795   -3.80938292   -1.33384001
 O         -0.07225500   -3.79345489   -1.93307400
 O         -0.78322703   -2.46066189    0.53526199
 O         -2.54303908   -1.33611703   -2.49227405
 O         -1.07476103    0.97887301    1.54503298
 O         -2.34594798   -1.46882796    1.96584201
 H         -2.72021389   -2.64182210   -0.18625900
 H         -0.30698001   -1.46882403    2.20700097
 H          0.17340100   -0.07328000    0.28250700
 H         -2.83270001    0.07559000   -0.28955001
 H         -0.62197798   -1.23749197   -1.89674604
 C         -2.51341295   -2.59273911    2.82955503
 H         -1.25217605    1.86639702    1.10192895
 H         -1.37692404   -4.64562416   -0.63141400
 H         -2.14054394   -3.98030305   -2.08611107
 H         -3.43309307   -1.31251097   -2.11823606
 H         -1.99053597    1.88113797   -1.15761900
 H         -0.13360301   -3.34100509   -2.78137207
 H         -1.73987103   -2.59704399    3.60551691
 H         -2.46875501   -3.53091311    2.26955891
 H         -3.49460602   -2.49102998    3.29186201
 C          3.94169497   -0.32739699    0.86984599
 C          2.41527390   -0.50826800    1.11623204
 C          4.13338518    0.68815702   -0.26167300
 C          3.37241912    1.97021496    0.09373400
 C          1.84927499    1.64691305    0.12607200
 N          1.72410297    0.19236700    0.03162800
 H          4.38828993   -1.28602505    0.59909600
 H          2.11901689   -1.55639601    1.08806396
 H          5.19455814    0.90720499   -0.39225900
 H          3.69476700    2.34390211    1.06745899
 H          1.31709504    2.08162308   -0.71845800
 H          4.41526222    0.02316900    1.78819203
 H          2.09450603   -0.06350300    2.05792999
 C          3.55301499    0.10902200   -1.55637097
 H          3.55560303    2.74882507   -0.64854199
 H          1.37974501    1.97068799    1.05464399
 C          2.08085299   -0.32419601   -1.29192901
 H          4.12796402   -0.75823897   -1.88491094
 H          3.58001900    0.85794199   -2.35018492
 H          1.96614301   -1.40728605   -1.27067101
 H          1.39462996    0.10257400   -2.02208209
 H         -3.56932902    5.61796999   -0.47150299
 H         -2.03965497    5.97046280    0.37899399
 O         -1.53462100    3.43483496    0.89765102
 C         -2.89657593    5.29579115    0.32256800
 C         -2.41161108    3.87225604    0.09962000
 O         -2.90659690    3.20857096   -0.85154098
 H         -3.41869497    5.34623814    1.28165603
