55
wb97x-d4 ma-def2-tzvp(-f) cpcm(dmso) E: -1285.244042280856, G: -1284.8236600900002
 C         -1.06220102   -1.53819299    1.40393496
 C         -1.13723695   -0.17535800    0.71571201
 C         -2.06788111   -0.19204900   -0.49930099
 O         -1.94737601    0.96201497   -1.31155705
 C         -1.74474800   -1.37985897   -1.39611006
 C         -1.70876706   -2.67092705   -0.59136099
 C         -1.26753199   -3.86096191   -1.41998804
 O         -1.30239701   -5.06798887   -0.66447502
 O         -0.74547303   -2.53985500    0.46150199
 O         -2.72622490   -1.51402700   -2.41585207
 O         -1.35623205    0.81223601    1.63759899
 O         -2.27924800   -1.77048397    2.04892302
 H         -2.69875908   -2.86880994   -0.16637699
 H         -0.23651201   -1.55155396    2.12552309
 H         -0.05264000   -0.02806400    0.26456699
 H         -3.09693408   -0.29739001   -0.12832800
 H         -0.75439101   -1.21286595   -1.84229696
 C         -2.26116991   -2.94091105    2.86611104
 H         -1.61353004    1.68982995    1.20032895
 H         -1.94862103   -3.99175406   -2.26078701
 H         -0.25857899   -3.67497802   -1.80917394
 H         -2.82356596   -0.64675999   -2.82964396
 H         -2.15674400    1.75663698   -0.77828002
 H         -0.73465103   -4.94191599    0.10578100
 H         -3.20404196   -2.95705199    3.41149998
 H         -1.42671394   -2.89944911    3.57495093
 H         -2.17536902   -3.84497094    2.25713611
 C          3.64355612   -0.44693300   -0.58862901
 C          2.18634796   -0.86888099   -0.24440500
 C          3.80095601    1.05128706   -0.30781701
 C          3.35718393    1.33666003    1.13107598
 C          1.83643496    1.03117704    1.25062299
 N          1.43623900    0.36559400    0.00821600
 H          3.85129690   -0.65701699   -1.63966298
 H          1.70597005   -1.39848006   -1.06595194
 H          4.84121799    1.35124803   -0.44602999
 H          3.91810107    0.71323800    1.83018398
 H          1.23977399    1.93765104    1.34300399
 H          4.33833694   -1.02967405    0.01844000
 H          2.13717604   -1.48026299    0.65584099
 C          2.89556193    1.82833600   -1.26904702
 H          3.53365993    2.38200593    1.39010596
 H          1.61951804    0.36096400    2.08235693
 C          1.44486403    1.27922404   -1.13911295
 H          3.23410392    1.70869303   -2.29956388
 H          2.91119099    2.89287496   -1.02653205
 H          1.13754404    0.71280003   -2.01723099
 H          0.72426897    2.07116008   -0.94489098
 H         -0.96156198    5.87959814   -0.51897198
 H         -2.62284088    5.58008814    0.05576900
 O         -2.16142297    2.98328590    0.48291501
 C         -1.75424802    5.13659382   -0.43725500
 C         -1.29297101    3.92129707    0.35139200
 O         -0.14300799    3.88034511    0.82057899
 H         -2.06970191    4.82259607   -1.43543506
