55
wb97x-d4 ma-def2-tzvp(-f) cpcm(dmso) E: -1285.244550721429, G: -1284.8236260800002
 C         -1.10262096   -1.35363901    1.39044404
 C         -1.01597798   -0.03890400    0.62264299
 C         -1.87072396   -0.03883500   -0.65049499
 O         -1.60389400    1.08962703   -1.44742203
 C         -1.59221900   -1.30350101   -1.45971298
 C         -1.66522002   -2.55527592   -0.58264399
 C         -1.28294301   -3.82751012   -1.32082200
 O          0.01490600   -3.77751493   -1.90951896
 O         -0.78393900   -2.42984390    0.53813797
 O         -2.47350907   -1.42226803   -2.56961489
 O         -1.19617903    1.01742601    1.47162902
 O         -2.38623810   -1.45960701    1.93812597
 H         -2.69660592   -2.67962003   -0.22708599
 H         -0.34747100   -1.38051498    2.18505597
 H          0.09775400   -0.01410100    0.22824000
 H         -2.92437100   -0.04988100   -0.33335999
 H         -0.58837801   -1.22353697   -1.88494694
 C         -2.52250099   -2.57523489    2.81796908
 H         -1.21942794    1.91895604    1.01368499
 H         -1.27044201   -4.64852285   -0.60071099
 H         -2.04325700   -4.04225492   -2.07593894
 H         -3.38109398   -1.42959595   -2.23906803
 H         -2.14004302    1.85729694   -1.11540604
 H         -0.05489600   -3.33960700   -2.76483393
 H         -3.50720191   -2.49518490    3.27709293
 H         -1.75081694   -2.54627490    3.59523702
 H         -2.44971895   -3.51956105    2.27157211
 C          3.83495808   -0.81813002    0.20621400
 C          2.30450201   -1.09171498    0.15758000
 C          4.08346701    0.63903099   -0.19790500
 C          3.48103905    1.55732095    0.87188798
 C          2.00299096    1.13180196    1.10773206
 N          1.64608800    0.21307300    0.02563500
 H          4.34091187   -1.50226796   -0.47703800
 H          2.01931405   -1.69639599   -0.70195401
 H          5.15432787    0.82572198   -0.29418701
 H          4.02950716    1.47410905    1.81149304
 H          1.32246602    1.98202300    1.07649398
 H          4.21379805   -1.00130606    1.21382105
 H          1.94615400   -1.56853700    1.06844199
 C          3.37623310    0.90715402   -1.52995205
 H          3.52113700    2.59787297    0.54376203
 H          1.87454402    0.60088903    2.05050111
 C          1.84150100    0.81186098   -1.29996002
 H          3.68697596    0.17409900   -2.27719212
 H          3.61932397    1.90213394   -1.90642703
 H          1.35747695    0.17793199   -2.04073596
 H          1.36251998    1.78948200   -1.29491305
 H         -3.14554405    5.46366119    1.27992904
 H         -3.28640795    5.72984791   -0.46853301
 O         -1.23846900    3.48254609    0.73236603
 C         -2.62582588    5.37330389    0.32145199
 C         -2.25541496    3.91421294    0.11545200
 O         -2.98322201    3.20765090   -0.63283402
 H         -1.72731805    5.99011278    0.37062201
