55
wb97x-d4 ma-def2-tzvp(-f) cpcm(dmso) E: -1285.242734021309, G: -1284.82360721
 C         -1.11657500   -0.91524303    1.64938700
 C         -0.98510098    0.12822001    0.53736103
 C         -1.81568301   -0.23388100   -0.69478101
 O         -1.49718201    0.55381000   -1.82954097
 C         -1.55351698   -1.67988706   -1.09189403
 C         -1.70519495   -2.62105393    0.09494900
 C         -1.34362400   -4.05927801   -0.22797699
 O         -0.01091800   -4.20371485   -0.70994902
 O         -0.82689899   -2.20195007    1.14568102
 O         -2.46942711   -2.09414196   -2.09839392
 O         -1.16358304    1.38728297    1.04623103
 O         -2.40556312   -0.82680398    2.18135095
 H         -2.74424005   -2.60176110    0.44340599
 H         -0.36648399   -0.73544103    2.42849588
 H          0.13606900    0.02683100    0.19017901
 H         -2.87594008   -0.11996500   -0.43007699
 H         -0.52424997   -1.74865198   -1.46480596
 C         -2.57637000   -1.61992896    3.35559201
 H         -1.34524298    2.07246900    0.32157299
 H         -1.49688101   -4.66736078    0.67035902
 H         -2.00577497   -4.42617798   -1.01274097
 H         -2.43363905   -1.43407905   -2.80228209
 H         -1.66423202    1.49835598   -1.62807798
 H          0.58674598   -3.93366408   -0.00266000
 H         -2.48221493   -2.68524694    3.12805510
 H         -3.57853889   -1.41481495    3.73027205
 H         -1.83617198   -1.34290099    4.11421204
 C          3.54891992    1.39713097    1.07976496
 C          2.00084710    1.24683404    1.04948497
 C          4.12863302    0.67284101   -0.13958199
 C          3.41314006    1.17291999   -1.39978004
 C          1.92195404    0.73462701   -1.32939506
 N          1.69184804    0.24164400    0.03186500
 H          3.94570303    0.96517801    2.00065589
 H          1.60598004    0.90379602    2.00521898
 H          5.20076799    0.86174202   -0.21496300
 H          3.47816706    2.26090503   -1.46489203
 H          1.69687402   -0.07721400   -2.01950097
 H          3.80549312    2.45742393    1.06214297
 H          1.50289702    2.17265511    0.76550299
 C          3.86680102   -0.83062202    0.00834400
 H          3.86757493    0.75007802   -2.29715896
 H          1.23974001    1.56323302   -1.51284802
 C          2.34972501   -1.04355705    0.28474301
 H          4.44214106   -1.24604201    0.83729202
 H          4.15509605   -1.35640597   -0.90413803
 H          2.15472889   -1.32083702    1.32011294
 H          1.91029596   -1.78754997   -0.37816599
 H         -2.18524504    5.33873510   -2.17737389
 H         -3.90849710    5.26934814   -1.72805905
 O         -1.61932099    3.06912589   -0.86408901
 C         -3.01572394    4.67563820   -1.92138696
 C         -2.63312888    3.84273791   -0.70777100
 O         -3.27920604    3.94568896    0.34796599
 H         -3.18576789    4.01891804   -2.77791309
