55
wb97x-d4 ma-def2-tzvp(-f) cpcm(dmso) E: -1285.243583419338, G: -1284.82360453
 C         -1.10231197   -1.35798204    1.28754699
 C         -0.98762202   -0.01800700    0.57002401
 C         -1.83237195    0.04001500   -0.70662600
 O         -1.53898501    1.18840504   -1.46506202
 C         -1.59393096   -1.20052695   -1.56627202
 C         -1.66287196   -2.48558307   -0.73452598
 C         -1.23057199   -3.68895197   -1.54217005
 O         -1.56458497   -4.87309790   -0.81725901
 O         -0.78598702   -2.40148592    0.39432099
 O         -2.51433492   -1.25550699   -2.64925289
 O         -1.16307700    1.01017499    1.45330906
 O         -2.39325905   -1.46837997    1.81560302
 H         -2.69365811   -2.63464093   -0.39036700
 H         -0.35704100   -1.42748904    2.08885908
 H          0.13196000    0.00599400    0.18918499
 H         -2.88656306    0.04343800   -0.39093301
 H         -0.60190600   -1.12456000   -2.02225208
 C         -2.55155611   -2.61430001    2.65216494
 H         -1.18284905    1.92712605    1.02649796
 H         -1.74404597   -3.66951394   -2.50708199
 H         -0.14905401   -3.63113093   -1.71467495
 H         -3.40979099   -1.22864902   -2.28836393
 H         -2.07482004    1.94957399   -1.11815703
 H         -1.27882099   -5.63047791   -1.34008706
 H         -2.47814298   -3.53850102    2.07266212
 H         -3.54217911   -2.54251790    3.09967804
 H         -1.79099905   -2.61953306    3.44081807
 C          3.87170792   -0.78188902    0.25936899
 C          2.34336710   -1.06150603    0.17968100
 C          4.12292480    0.67808002   -0.13326301
 C          3.48982596    1.59034598    0.92345703
 C          2.00626111    1.16226196    1.11587203
 N          1.68244100    0.23950900    0.02648100
 H          4.39449120   -1.46055901   -0.41659299
 H          2.07897210   -1.67284203   -0.68203002
 H          5.19509315    0.86983502   -0.20151000
 H          4.01246309    1.50378501    1.87739396
 H          1.32561004    2.01108003    1.06187403
 H          4.23111820   -0.96793002    1.27351606
 H          1.96848500   -1.53449094    1.08591604
 C          3.44926190    0.94834298   -1.48218906
 H          3.53766489    2.63239193    0.60116100
 H          1.85043800    0.63403302    2.05593705
 C          1.90961802    0.83525503   -1.29570901
 H          3.78826690    0.22397500   -2.22559309
 H          3.69269705    1.94839501   -1.84475696
 H          1.45383704    0.19278400   -2.04717708
 H          1.41937399    1.80717194   -1.30850697
 H         -1.65854096    6.02144623    0.49125299
 H         -3.08187795    5.48414612    1.38590801
 O         -1.19703400    3.49913096    0.80185598
 C         -2.56193805    5.41325092    0.42599499
 C         -2.20185494    3.95721793    0.18402100
 O         -2.92505407    3.27851701   -0.59394902
 H         -3.21824789    5.79437304   -0.35599700
