55
wb97x-d4 ma-def2-tzvp(-f) cpcm(dmso) E: -1285.243997668619, G: -1284.82359003
 C         -1.26178205   -1.36490095    1.47164202
 C         -1.28649700   -0.08807100    0.63132799
 C         -2.05954695   -0.27259499   -0.67884398
 O         -1.87071395    0.78478497   -1.60006404
 C         -1.59232700   -1.53832197   -1.38783097
 C         -1.61131799   -2.73420405   -0.44751400
 C         -1.02154005   -3.97717094   -1.08337903
 O         -1.10096502   -5.10078096   -0.21228801
 O         -0.79664499   -2.44759893    0.69612700
 O         -2.43344688   -1.82884598   -2.49665594
 O         -1.64101803    0.97948003    1.41285205
 O         -2.54709601   -1.57817900    1.97694898
 H         -2.63916993   -2.93872809   -0.12920000
 H         -0.53830302   -1.26355803    2.28940105
 H         -0.15792701    0.05461800    0.29896501
 H         -3.12303996   -0.38013500   -0.42335901
 H         -0.56078500   -1.37597203   -1.72918200
 C         -2.59829903   -2.63530898    2.93488002
 H         -1.82273495    1.80694497    0.86187398
 H         -1.58605599   -4.22925091   -1.98102796
 H          0.01963800   -3.77741194   -1.36643898
 H         -2.48902011   -1.02411497   -3.02776599
 H         -2.11492109    1.63988101   -1.18210495
 H         -0.63774103   -4.86748791    0.60172600
 H         -1.89238203   -2.44532490    3.75091290
 H         -2.36670995   -3.59818411    2.47124696
 H         -3.61447906   -2.65420294    3.32692599
 C          2.95200896    1.70263803   -1.15596700
 C          1.49803805    1.15058994   -1.11400199
 C          3.72111392    1.14934301    0.04823000
 C          3.62068295   -0.38004601    0.03770200
 C          2.13076401   -0.78409499    0.23424700
 N          1.34261000    0.45079300    0.16613100
 H          2.93398595    2.79383111   -1.12425601
 H          0.75646800    1.94531202   -1.15854299
 H          4.76761913    1.45515203   -0.00301800
 H          3.98848701   -0.77544600   -0.91099799
 H          1.95394003   -1.23966300    1.20771205
 H          3.42660689    1.39601898   -2.08955789
 H          1.30509496    0.43404499   -1.91095996
 C          3.07985401    1.68428195    1.33315206
 H          4.21938181   -0.81180501    0.84152901
 H          1.77988100   -1.45635498   -0.54718798
 C          1.56435895    1.33132005    1.31552994
 H          3.19499111    2.76752710    1.39869201
 H          3.55520511    1.23773897    2.20865393
 H          0.93869799    2.21362710    1.18491900
 H          1.25863898    0.79722703    2.21512794
 H         -0.40022400    5.31335688   -1.63310599
 H         -2.16162395    5.06678581   -1.78600895
 O         -2.17801595    2.99596190   -0.11394000
 C         -1.20295095    4.57750320   -1.59876502
 C         -1.24440098    3.86806393   -0.25449800
 O         -0.40220499    4.13482904    0.61871302
 H         -1.05418003    3.83611298   -2.38870502
