55
wb97x-d4 ma-def2-tzvp(-f) cpcm(dmso) E: -1285.244695353678, G: -1284.82357146
 C         -1.06729102   -1.46959102    1.38894796
 C         -1.06635499   -0.12371300    0.67464602
 C         -1.97083199   -0.11777600   -0.56292999
 O         -1.79273903    1.04642904   -1.33559704
 C         -1.66323698   -1.32582104   -1.43758404
 C         -1.59161305   -2.62255311   -0.62363702
 C         -1.02766299   -3.78651190   -1.43338704
 O         -1.83235705   -4.08780622   -2.57616591
 O         -0.69740301   -2.48604202    0.48180899
 O         -2.68074608   -1.41693103   -2.42839193
 O         -1.26172495    0.89215600    1.56868804
 O         -2.33333492   -1.67491698    1.94407797
 H         -2.59779096   -2.87351108   -0.26712999
 H         -0.29915100   -1.48888195    2.17041492
 H          0.03399900   -0.03091100    0.24637400
 H         -3.00742602   -0.19689301   -0.20755300
 H         -0.68700999   -1.15777504   -1.91439700
 C         -2.39234304   -2.82858610    2.78306603
 H         -1.19329298    1.81698406    1.15222394
 H         -0.03722400   -3.51768804   -1.80844498
 H         -0.93068200   -4.66214800   -0.78569102
 H         -2.55941296   -2.27202010   -2.86977196
 H         -2.24148989    1.81498396   -0.90077198
 H         -2.60059500   -4.59149122   -2.28044200
 H         -1.61434102   -2.78171992    3.55299497
 H         -2.27044106   -3.74559093    2.20010805
 H         -3.37448597   -2.82428789    3.25429106
 C          3.46834898    1.17741799    1.23997295
 C          2.02603602    0.61498600    1.38724899
 C          3.93640208    0.93506902   -0.20006000
 C          3.07152295    1.77841496   -1.14249802
 C          1.57595897    1.46248305   -0.85713398
 N          1.54752600    0.29977500    0.03932400
 H          4.12259722    0.67295301    1.95282197
 H          2.00607491   -0.30602500    1.96922004
 H          4.98718309    1.21069300   -0.30459899
 H          3.25122094    2.84282303   -0.98258901
 H          1.02945101    1.20397604   -1.76191294
 H          3.47782898    2.24555397    1.46549594
 H          1.34370005    1.33882594    1.83206403
 C          3.74448204   -0.54675901   -0.54361200
 H          3.30827808    1.54554200   -2.18264508
 H          1.06472301    2.28129601   -0.35203400
 C          2.22200799   -0.87036598   -0.53219402
 H          4.26215315   -1.17366898    0.18517400
 H          4.14970016   -0.76981401   -1.53194702
 H          1.98749304   -1.73675394    0.08444500
 H          1.82882905   -1.02434504   -1.53616798
 H         -2.95455909    5.80097103   -0.02483900
 H         -1.23543298    5.77588701   -0.46496499
 O         -2.86459398    3.28312993   -0.34552801
 C         -1.97375703    5.42134809    0.26041600
 C         -1.95092201    3.90235090    0.26117799
 O         -0.98646700    3.33963609    0.85916299
 H         -1.68879998    5.80721712    1.24045396
