55
wb97x-d4 ma-def2-tzvp(-f) cpcm(dmso) E: -1285.244857525613, G: -1284.82353884
 C         -1.15735996   -1.05102003    1.62997103
 C         -1.08999801    0.06024800    0.58764303
 C         -1.86624503   -0.27826700   -0.68932003
 O         -1.59641099    0.64696199   -1.71640897
 C         -1.48759198   -1.67075396   -1.17638099
 C         -1.52660501   -2.69973898   -0.04309800
 C         -0.93045503   -4.04363489   -0.45187399
 O         -1.63594902   -4.63824892   -1.54423594
 O         -0.72595298   -2.26819611    1.05816495
 O         -2.39463997   -2.03007603   -2.21229792
 O         -1.37735295    1.26686895    1.16415906
 O         -2.46432090   -1.11997497    2.11855698
 H         -2.56639004   -2.83973408    0.27589700
 H         -0.45204401   -0.85134900    2.44533396
 H          0.04293700    0.06974100    0.25099200
 H         -2.93462491   -0.27681699   -0.43305701
 H         -0.46112400   -1.62816095   -1.56839097
 C         -2.59437895   -1.99889195    3.23571301
 H         -1.32110596    2.04874802    0.52080601
 H          0.09829100   -3.89422011   -0.78827697
 H         -0.92176402   -4.71127892    0.41409701
 H         -2.25159407   -2.97297597   -2.38913608
 H         -2.12652993    1.47170103   -1.57056105
 H         -2.44932103   -5.02976322   -1.20315802
 H         -2.39549589   -3.03460312    2.94706893
 H         -3.62160611   -1.91009605    3.58743906
 H         -1.90485203   -1.70498705    4.03464413
 C          3.33800292    0.91866499   -1.50078499
 C          1.80296803    0.74250698   -1.32065296
 C          4.00254488    0.85089397   -0.12191800
 C          3.80388403   -0.55552399    0.45310700
 C          2.28575301   -0.89460701    0.42339101
 N          1.57998705    0.34220201    0.07319200
 H          3.53468704    1.87967098   -1.97892702
 H          1.25761902    1.66968596   -1.48891604
 H          5.06739187    1.07472801   -0.20625600
 H          4.34810209   -1.29507196   -0.13645400
 H          1.92561698   -1.23457205    1.39299500
 H          3.72898006    0.12982801   -2.14649510
 H          1.40018296   -0.03318100   -1.96940804
 C          3.32397294    1.86591804    0.80526102
 H          4.17292309   -0.59972000    1.47976899
 H          2.04169893   -1.64023304   -0.33206999
 C          1.84430802    1.43082905    1.01516199
 H          3.35801101    2.86377001    0.36381000
 H          3.82670498    1.90383899    1.77300298
 H          1.14643502    2.24055099    0.80546701
 H          1.66602397    1.05109799    2.02095699
 H         -2.73993397    5.76122379   -0.43527499
 H         -2.88035798    5.40420723   -2.16945195
 O         -1.18283498    3.47510409   -0.13964400
 C         -2.26186800    5.26293182   -1.28352702
 C         -2.10249901    3.78869295   -0.95131803
 O         -2.89229608    2.96121812   -1.47932100
 H         -1.28352702    5.72387218   -1.42998600
