55
wb97x-d4 ma-def2-tzvp(-f) cpcm(dmso) E: -1285.243940404466, G: -1284.8235253500002
 C         -1.18068004   -1.59067500    1.32965302
 C         -1.20349395   -0.19865701    0.69713801
 C         -2.06467295   -0.15817399   -0.56837302
 O         -1.88972795    1.02099001   -1.33300698
 C         -1.69934797   -1.31536698   -1.49088299
 C         -1.71140301   -2.63989401   -0.74285603
 C         -1.21926904   -3.79234409   -1.59572995
 O         -1.29304194   -5.03143978   -0.89752799
 O         -0.81119001   -2.55626011    0.36911899
 O         -2.62312794   -1.39935696   -2.56801605
 O         -1.46765804    0.74571002    1.65152097
 O         -2.43994308   -1.83675301    1.88355899
 H         -2.72415709   -2.85490894   -0.38556400
 H         -0.40487701   -1.64154303    2.10274100
 H         -0.09559300   -0.03466100    0.31077799
 H         -3.11344790   -0.26811600   -0.25902599
 H         -0.68499500   -1.14062905   -1.87497401
 C         -2.48179603   -3.03433490    2.65979695
 H         -1.68906701    1.64748502    1.24523497
 H         -1.85042202   -3.88691092   -2.47927999
 H         -0.19031100   -3.58831692   -1.91763103
 H         -2.68197989   -0.51743603   -2.95744109
 H         -2.08765888    1.80696106   -0.78016001
 H         -0.77042800   -4.93939400   -0.09136600
 H         -1.68991101   -3.02653909    3.41689396
 H         -2.36949992   -3.91863990    2.02650499
 H         -3.45514607   -3.05751491    3.14845705
 C          3.67498493   -0.44027600   -0.06168800
 C          2.17453098   -0.85099298   -0.06744400
 C          3.76537609    1.08748698   -0.15143199
 C          3.16288996    1.69722795    1.11978602
 C          1.73811996    1.10430205    1.32481802
 N          1.39685500    0.38194200    0.09728000
 H          4.17754412   -0.90818697   -0.90979803
 H          1.87311804   -1.30976200   -1.00835598
 H          4.80674410    1.39567995   -0.25941601
 H          3.77605391    1.46477604    1.99200702
 H          0.99168903    1.88245499    1.48523605
 H          4.15274811   -0.79395801    0.85426801
 H          1.93211901   -1.52336800    0.75425297
 C          2.94646907    1.56008101   -1.35658300
 H          3.10237598    2.78342605    1.02554595
 H          1.70773900    0.39098600    2.14822507
 C          1.44781101    1.24182200   -1.09095597
 H          3.27917409    1.05084705   -2.26330304
 H          3.06298590    2.63463497   -1.50683296
 H          0.98977900    0.70793098   -1.92107904
 H          0.86658502    2.13712096   -0.87652498
 H         -2.30982900    5.47248316   -0.39923099
 H         -1.28636706    4.52610016   -1.47675896
 O         -2.11271095    2.96976805    0.51638299
 C         -1.33698595    4.98218822   -0.48467299
 C         -1.22471297    3.89704204    0.57393402
 O         -0.31842601    3.94328809    1.42248905
 H         -0.54381299    5.72167301   -0.37971199
