55
wb97x-d4 ma-def2-tzvp(-f) cpcm(dmso) E: -1285.244005366823, G: -1284.82344044
 C         -1.25262296   -1.35348499    1.49185205
 C         -1.27954400   -0.07735300    0.65050900
 C         -2.06902790   -0.25916001   -0.65043199
 O         -1.88482702    0.79556298   -1.57571101
 C         -1.61750305   -1.52870500   -1.36281097
 C         -1.63166404   -2.72323608   -0.42084700
 C         -1.05591702   -3.97001600   -1.06210899
 O         -1.12833095   -5.09115314   -0.18727601
 O         -0.80213600   -2.43957496    0.71256697
 O         -2.47327995   -1.81619096   -2.46116209
 O         -1.61925006    0.99269903    1.43536603
 O         -2.53353810   -1.55913699    2.01132703
 H         -2.65670395   -2.92215991   -0.09014100
 H         -0.51976502   -1.25542200    2.30157900
 H         -0.15451200    0.05925600    0.30449900
 H         -3.13009501   -0.35992301   -0.38246399
 H         -0.58918703   -1.37275004   -1.71654403
 C         -2.58060503   -2.61666107    2.96900105
 H         -1.80433404    1.82031095    0.88560897
 H         -1.63365805   -4.22166204   -1.95143402
 H         -0.01782000   -3.77543211   -1.35978603
 H         -2.52988291   -1.01229501   -2.99341011
 H         -2.11830497    1.65298605   -1.15618300
 H         -0.65372300   -4.85750008    0.62005103
 H         -3.59195089   -2.62843800    3.37361407
 H         -1.86319995   -2.43271708    3.77636099
 H         -2.36193705   -3.58082199    2.50176907
 C          2.94721198    1.67548501   -1.20413601
 C          1.49214995    1.12897003   -1.14106202
 C          3.72987890    1.12303698   -0.00828400
 C          3.61676598   -0.40559500   -0.00886200
 C          2.12787390   -0.79582697    0.21974100
 N          1.34776103    0.44403601    0.14848401
 H          2.93393898    2.76686096   -1.17576694
 H          0.75257897    1.92549396   -1.18733704
 H          4.77787685    1.42022502   -0.07649400
 H          3.96222711   -0.80868101   -0.96274799
 H          1.96509004   -1.23636997    1.20255601
 H          3.40789294    1.36396098   -2.14305210
 H          1.28906798    0.40408000   -1.92789495
 C          3.11132908    1.66980302    1.28286397
 H          4.22759724   -0.83869600    0.78504598
 H          1.75810695   -1.47634006   -0.54566699
 C          1.59160101    1.33539605    1.28498304
 H          3.24011302    2.75175190    1.34389603
 H          3.59219408    1.22000694    2.15370798
 H          0.97513902    2.22356200    1.15026700
 H          1.28879797    0.81626803    2.19426107
 H         -1.02415800    3.83427906   -2.36699104
 H         -0.40953100    5.33153582   -1.61919403
 O         -2.16702008    3.00794411   -0.08661300
 C         -1.19689202    4.57925606   -1.58515096
 C         -1.23337603    3.87860489   -0.23620600
 O         -0.38655299    4.14877510    0.63141400
 H         -2.16435099    5.04515314   -1.78555298
