55
wb97x-d4 ma-def2-tzvp(-f) cpcm(dmso) E: -1285.242488297675, G: -1284.8234321
 C         -1.04603601   -0.90888500    1.59106600
 C         -0.85069299    0.15080200    0.50437999
 C         -1.68714702   -0.13901401   -0.74350101
 O         -1.30762601    0.65670002   -1.85327995
 C         -1.51611400   -1.59015906   -1.17482102
 C         -1.71420205   -2.54393911   -0.00557000
 C         -1.39244294   -3.97889090   -0.37302801
 O         -1.63194096   -4.86455822    0.71586198
 O         -0.81271398   -2.19316006    1.05210304
 O         -2.46108603   -1.92172897   -2.18407989
 O         -0.95649302    1.40886605    1.03233898
 O         -2.33567190   -0.76907700    2.10932899
 H         -2.74736094   -2.48087502    0.35188699
 H         -0.30105501   -0.78754801    2.38508010
 H          0.26955399   -0.00136100    0.15860599
 H         -2.74195504    0.03180900   -0.48902100
 H         -0.49568799   -1.71479905   -1.56045699
 C         -2.55802202   -1.57665396    3.26546907
 H         -1.26364601    2.09344506    0.34678301
 H         -2.03667688   -4.29844999   -1.19215596
 H         -0.34747601   -4.04090023   -0.70192498
 H         -2.38862491   -1.24653995   -2.87102389
 H         -1.54461396    1.58869600   -1.66123104
 H         -1.09845603   -4.55615616    1.45870996
 H         -3.55701208   -1.33750296    3.62808299
 H         -1.81940603   -1.34439099    4.04038811
 H         -2.50377798   -2.64056611    3.01868796
 C          3.43365097    1.97914600   -0.45490599
 C          1.92417502    1.60275805   -0.47463301
 C          4.24778986    0.70776600   -0.19498800
 C          3.84687209   -0.36075601   -1.21848905
 C          2.35462689   -0.74181998   -0.98589802
 N          1.82172096    0.21682499   -0.01345700
 H          3.62524509    2.71692801    0.32668599
 H          1.33523905    2.22860599    0.19541600
 H          5.31452990    0.92303199   -0.27770901
 H          3.97691894    0.01983300   -2.23337412
 H          2.24368405   -1.74077404   -0.56531501
 H          3.70318103    2.42190790   -1.41507697
 H          1.50192702    1.64917302   -1.47724402
 C          3.92283010    0.19379500    1.21078098
 H          4.46569014   -1.25252497   -1.10665095
 H          1.76754498   -0.66393501   -1.89994001
 C          2.38063312    0.02470500    1.32772601
 H          4.26629591    0.89834201    1.96985698
 H          4.41373396   -0.76515698    1.38775897
 H          1.93359196    0.77087200    1.98424804
 H          2.10730410   -0.97284198    1.67004502
 H         -3.47975206    3.82560802   -2.58836794
 H         -2.66211295    5.28018284   -2.02279711
 O         -1.72468996    3.07489991   -0.77539098
 C         -3.36931705    4.49786091   -1.73445404
 C         -2.80407596    3.73369193   -0.54708701
 O         -3.37094688    3.78554893    0.55662602
 H         -4.32989979    4.95116997   -1.49204803
