55
wb97x-d4 ma-def2-tzvp(-f) cpcm(dmso) E: -1285.243441606424, G: -1284.82342876
 C         -1.19205701   -1.16105700    1.66955698
 C         -1.17408597   -0.06281800    0.60475498
 C         -1.94907999   -0.45214301   -0.65787101
 O         -1.67076099    0.39604199   -1.75798702
 C         -1.58046103   -1.86246896   -1.10451198
 C         -1.63486004   -2.84808898    0.05327500
 C         -1.12726605   -4.22203684   -0.33720601
 O         -1.23618603   -5.14911222    0.73805499
 O         -0.77485502   -2.38516498    1.10241604
 O         -2.47568202   -2.31219006   -2.11348510
 O         -1.48815799    1.14510906    1.16791296
 O         -2.47994494   -1.22874296    2.20647597
 H         -2.66165304   -2.92980409    0.42430201
 H         -0.46209601   -0.94270599    2.45701909
 H         -0.04237700   -0.01841000    0.25275499
 H         -3.01962304   -0.42965099   -0.41142499
 H         -0.55469799   -1.83986497   -1.49539697
 C         -2.56339097   -2.09749198    3.33662105
 H         -1.78154695    1.82691097    0.47908801
 H         -1.73068094   -4.61251688   -1.15655696
 H         -0.08663600   -4.13939524   -0.67497301
 H         -2.49058890   -1.63526499   -2.80209708
 H         -1.96418405    1.30898595   -1.54147506
 H         -0.73396802   -4.78993797    1.47980595
 H         -2.37365699   -3.13568091    3.05073190
 H         -3.57609391   -2.00684810    3.72759604
 H         -1.84326899   -1.79437804    4.10444212
 C          2.76267195    2.44727993   -0.27514899
 C          1.32564199    1.85500097   -0.30477300
 C          3.76147199    1.29050398   -0.16248900
 C          3.47302890    0.27257699   -1.27224195
 C          2.06707406   -0.35005301   -1.02820206
 N          1.43878102    0.43538401    0.03947500
 H          2.87095594    3.12408090    0.57471597
 H          0.67053300    2.33522797    0.42059401
 H          4.78214407    1.66568601   -0.25509599
 H          3.49597406    0.76131099   -2.24818492
 H          2.12617993   -1.38487697   -0.69218898
 H          2.93089890    3.01902604   -1.18923199
 H          0.87435699    1.91830206   -1.29412198
 C          3.57293701    0.60763401    1.19529998
 H          4.22137213   -0.52157998   -1.27117097
 H          1.43576598   -0.29068199   -1.91369498
 C          2.07492208    0.21875900    1.34341097
 H          3.85255504    1.27867496    2.00904393
 H          4.19616890   -0.28633100    1.26074398
 H          1.55772996    0.84395403    2.07101989
 H          1.95136702   -0.83012599    1.61130595
 H         -2.47855711    4.35691404   -2.72259498
 H         -0.82620603    3.74515104   -2.81196904
 O         -2.26548696    2.77130198   -0.67462498
 C         -1.49981797    4.39138317   -2.24074292
 C         -1.58801496    3.85310888   -0.82183599
 O         -1.00710702    4.44252586    0.10419000
 H         -1.10947502    5.40859079   -2.25331092
