55
wb97x-d4 ma-def2-tzvp(-f) cpcm(dmso) E: -1285.247653245356, G: -1284.82699683
 C         -1.12660003   -1.11293805    1.59632194
 C         -1.10587394   -0.00330200    0.54563600
 C         -1.91024101   -0.37496001   -0.70183802
 O         -1.70836306    0.51992100   -1.77153206
 C         -1.49986196   -1.75717497   -1.19136000
 C         -1.56371295   -2.77298498   -0.05974600
 C         -1.04555702   -4.13537502   -0.47434801
 O         -1.16668105   -5.08718014    0.57831103
 O         -0.72111398   -2.33449507    1.01349795
 O         -2.36247492   -2.18806601   -2.23571801
 O         -1.39941502    1.20269799    1.11927199
 O         -2.41050506   -1.17797196    2.14382505
 H         -2.59616089   -2.86677289    0.29397100
 H         -0.38545400   -0.90802097    2.37797499
 H          0.01862700    0.02243300    0.18237799
 H         -2.97013903   -0.40318701   -0.41272101
 H         -0.46407500   -1.70057404   -1.55575705
 C         -2.49105000   -2.05501795    3.26721096
 H         -1.34308600    1.97754598    0.46581200
 H         -1.63550603   -4.50929594   -1.31118000
 H         -0.00026000   -4.04130507   -0.79472399
 H         -2.43543506   -1.44867599   -2.85383892
 H         -2.22140598    1.35731304   -1.61969197
 H         -0.68722701   -4.73636389    1.33894205
 H         -1.76568103   -1.76094496    4.03367281
 H         -2.30689192   -3.09150100    2.97169495
 H         -3.50123000   -1.96393800    3.66472793
 C          3.19648004    1.31361103   -1.47858500
 C          1.74774504    0.75383800   -1.39192200
 C          3.93819690    0.94721699   -0.18762800
 C          3.78862309   -0.55989301    0.05130400
 C          2.29244399   -0.86553901    0.34829599
 N          1.53798497    0.34356999    0.00100200
 H          3.16964006    2.39794993   -1.60405004
 H          0.99959701    1.50288796   -1.64477599
 H          4.99346113    1.21252406   -0.27063701
 H          4.11465693   -1.11655700   -0.82965499
 H          2.11752105   -1.07566500    1.40280795
 H          3.69458508    0.88210398   -2.34829903
 H          1.60578299   -0.12402600   -2.02104497
 C          3.29435492    1.69782996    0.98289299
 H          4.39368582   -0.88176000    0.90047097
 H          1.91167796   -1.69066799   -0.25203699
 C          1.76178598    1.44219804    0.94362700
 H          3.47871590    2.77058911    0.90769899
 H          3.70723891    1.34586298    1.93050504
 H          1.20953798    2.30754209    0.57971102
 H          1.36977994    1.14641798    1.91643405
 H         -2.74959111    5.66174698   -0.53811097
 H         -2.91318607    5.28344202   -2.26552796
 O         -1.19277799    3.36931300   -0.24341200
 C         -2.28447604    5.15004396   -1.38564503
 C         -2.13025594    3.67987490   -1.03543997
 O         -2.94253993    2.85253692   -1.52934694
 H         -1.30529106    5.60313892   -1.54942298
