55
wb97x-d4 ma-def2-tzvp(-f) cpcm(dmso) E: -1285.244422070207, G: -1284.82330447
 C         -1.15583503   -1.15257299    1.63624704
 C         -0.98442698   -0.00659200    0.64353001
 C         -1.73891699   -0.21747600   -0.67313898
 O         -1.30326998    0.70503902   -1.64360797
 C         -1.50950599   -1.63492703   -1.19619501
 C         -1.69646704   -2.68056893   -0.09644500
 C         -1.37858999   -4.09539080   -0.54937500
 O         -0.05697300   -4.24827194   -1.06355906
 O         -0.84407300   -2.37864208    1.01377797
 O         -2.34256005   -1.92209899   -2.31284595
 O         -1.19206297    1.19385397    1.26914501
 O         -2.46533704   -1.11526704    2.12683392
 H         -2.74414110   -2.67066193    0.23115601
 H         -0.43944699   -1.05486298    2.46008706
 H          0.14496800   -0.06369000    0.32506001
 H         -2.81137705   -0.08741600   -0.46502900
 H         -0.48498800   -1.69613302   -1.57067895
 C         -2.67796612   -2.02455306    3.20588303
 H         -1.27250803    1.98115396    0.64393800
 H         -1.45704496   -4.75668287    0.31617999
 H         -2.12122297   -4.40509415   -1.28906596
 H         -3.26423502   -1.82509005   -2.03998590
 H         -1.86866999    1.52360296   -1.59765804
 H         -0.05428700   -3.97284007   -1.98693705
 H         -3.68857288   -1.84755695    3.57237291
 H         -1.95745504   -1.83817601    4.00999022
 H         -2.58725405   -3.06171989    2.87137890
 C          3.22577810    2.09210205   -0.19373199
 C          1.72342098    1.68784499   -0.13499101
 C          4.07378578    0.81630999   -0.21581900
 C          3.60249496   -0.07690100   -1.36874700
 C          2.13480806   -0.51797199   -1.09126306
 N          1.68193197    0.24052000    0.07755900
 H          3.48104191    2.70076799    0.67575598
 H          1.20203900    2.16929293    0.69137299
 H          5.12726688    1.06986594   -0.34651199
 H          3.65057492    0.46759900   -2.31360006
 H          2.06096911   -1.57803297   -0.85088700
 H          3.40034509    2.68801498   -1.09099197
 H          1.19919801    1.90104699   -1.06470203
 C          3.87516809    0.06481100    1.10454404
 H          4.23406982   -0.96270698   -1.45284998
 H          1.47491503   -0.28448701   -1.92543304
 C          2.35084105   -0.17016201    1.31403899
 H          4.26890087    0.64271998    1.94220901
 H          4.39558983   -0.89431500    1.07641304
 H          1.94902205    0.43531099    2.12630296
 H          2.12030196   -1.21970606    1.49419904
 H         -3.02799201    5.58887577   -0.01636800
 H         -3.41572905    5.33475590   -1.74012005
 O         -1.41239798    3.48291802    0.08956400
 C         -2.65388799    5.21215200   -0.97104102
 C         -2.24723005    3.75529909   -0.81902897
 O         -2.75036192    2.90415096   -1.60199296
 H         -1.77264595    5.80256319   -1.23493397
