55
wb97x-d4 ma-def2-tzvp(-f) cpcm(dmso) E: -1285.245891793019, G: -1284.82328336
 C         -1.08962703   -1.05100298    1.69323099
 C         -0.98155099    0.01545500    0.60263199
 C         -1.77701199   -0.35303801   -0.65208501
 O         -1.46410799    0.47734499   -1.74624395
 C         -1.46245801   -1.78638899   -1.05830300
 C         -1.60538101   -2.75074506    0.11264900
 C         -1.17257702   -4.16965008   -0.23721300
 O         -2.09447598   -4.81269789   -1.10996997
 O         -0.74344599   -2.31789494    1.16849601
 O         -2.34026003   -2.21168089   -2.09835100
 O         -1.21412206    1.25599396    1.12666094
 O         -2.38910890   -1.02062297    2.20458698
 H         -2.64622498   -2.76710510    0.45351499
 H         -0.36205900   -0.86289001    2.49046612
 H          0.15245900   -0.03216200    0.26390100
 H         -2.84409404   -0.28176501   -0.40128100
 H         -0.42434800   -1.82797897   -1.41213095
 C         -2.55167603   -1.84982896    3.35523796
 H         -1.30348599    1.99060905    0.43469799
 H         -0.16678400   -4.14493179   -0.67583799
 H         -1.13429403   -4.76011515    0.68019903
 H         -2.24619007   -1.58408499   -2.82660794
 H         -2.03535700    1.29386795   -1.71829498
 H         -2.25426888   -4.20697117   -1.84811401
 H         -3.56540895   -1.68651998    3.71908998
 H         -1.83184397   -1.56970894    4.13199806
 H         -2.42014289   -2.90519691    3.10154104
 C          3.18522310    2.15260792   -0.34169200
 C          1.69673002    1.70035398   -0.31469300
 C          4.07236719    0.92531502   -0.11302600
 C          3.72343707   -0.14453299   -1.15344501
 C          2.24808407   -0.59349197   -0.93549901
 N          1.68046796    0.29169199    0.08610800
 H          3.36172509    2.89729500    0.43678099
 H          1.11076999    2.26595902    0.40814501
 H          5.12408018    1.20329702   -0.20213400
 H          3.84122491    0.25619200   -2.16191602
 H          2.17846990   -1.61664796   -0.56751603
 H          3.40319109    2.61133003   -1.30747902
 H          1.22546995    1.77095699   -1.29371297
 C          3.79544902    0.36739799    1.28644502
 H          4.38158178   -1.00879896   -1.05052102
 H          1.65307295   -0.49177301   -1.84210598
 C          2.27189994    0.07609000    1.40953696
 H          4.08928919    1.08602405    2.05319810
 H          4.36039114   -0.55277598    1.44687700
 H          1.77904999    0.75278997    2.10735106
 H          2.07762790   -0.95483798    1.70369303
 H         -3.35845089    5.10362101   -2.29836798
 H         -1.70615494    5.55811882   -1.80199003
 O         -1.41196704    3.40266895   -0.27202299
 C         -2.62009597    5.04130507   -1.49976301
 C         -2.29162002    3.59747005   -1.15902996
 O         -2.90132093    2.67797589   -1.76976204
 H         -3.00213504    5.54410887   -0.60792601
