55
wb97x-d4 ma-def2-tzvp(-f) cpcm(dmso) E: -1285.242628151654, G: -1284.8232592400002
 C         -1.10025501   -1.17317796    1.37387896
 C         -0.90250403    0.10836600    0.56194597
 C         -1.70260704    0.09835900   -0.74413401
 O         -1.31998396    1.12640798   -1.63865805
 C         -1.48538697   -1.21517599   -1.48485100
 C         -1.72527695   -2.40434408   -0.56693101
 C         -1.40573895   -3.72772598   -1.23268199
 O         -1.70576203   -4.82883787   -0.38050601
 O         -0.85112298   -2.30291700    0.56442499
 O         -2.37379694   -1.31257200   -2.59037089
 O         -1.05523205    1.20610201    1.36657202
 O         -2.39444208   -1.16358304    1.90014195
 H         -2.76785111   -2.40850306   -0.23125400
 H         -0.35961899   -1.22880304    2.18055511
 H          0.22540200    0.05283800    0.22328600
 H         -2.76709199    0.18638900   -0.48595500
 H         -0.44409001   -1.24583805   -1.83369005
 C         -2.62712789   -2.23489094    2.81491899
 H         -1.24892604    2.04759192    0.83718401
 H         -2.01791096   -3.84152699   -2.12729311
 H         -0.34846401   -3.73870301   -1.52581298
 H         -2.29049611   -0.48974901   -3.08945704
 H         -1.52118099    1.99670506   -1.22939599
 H         -1.19760001   -4.71064377    0.43151399
 H         -3.61201191   -2.06837201    3.24960709
 H         -1.86995304   -2.23223400    3.60674000
 H         -2.61193109   -3.20069003    2.30258203
 C          3.65087891    1.45241702    1.02477896
 C          2.14738107    1.09034705    1.19826496
 C          4.25068283    0.52798301   -0.04103500
 C          3.60471606    0.85260397   -1.39161301
 C          2.05925107    0.81009102   -1.22099900
 N          1.79316998    0.20480300    0.08869600
 H          4.15986013    1.32694900    1.98178005
 H          1.95919800    0.55139399    2.12635803
 H          5.33141184    0.66916299   -0.09547700
 H          3.89889002    1.84580898   -1.73487902
 H          1.57912302    0.20140301   -1.98506796
 H          3.74999094    2.49601197    0.71967697
 H          1.50545394    1.96967995    1.15574706
 C          3.92583895   -0.92436999    0.32452101
 H          3.91558003    0.12535299   -2.14436007
 H          1.61527896    1.80427504   -1.22209597
 C          2.38658500   -1.12928998    0.22488400
 H          4.26449919   -1.14396000    1.33903098
 H          4.42241192   -1.61640000   -0.35758099
 H          1.97979498   -1.59885097    1.11914897
 H          2.10252810   -1.71159995   -0.65066898
 H         -4.10929918    5.35737181   -0.48841599
 H         -3.59348106    4.11291313   -1.65632296
 O         -3.11732697    3.97028899    1.39686501
 C         -3.26182508    4.78028822   -0.85664099
 C         -2.63142490    3.95475793    0.25431001
 O         -1.59495294    3.27246404   -0.08037300
 H         -2.51325607    5.45363379   -1.28089094
