55
wb97x-d4 ma-def2-tzvp(-f) cpcm(dmso) E: -1285.243762628385, G: -1284.8231693300002
 C         -1.23188806   -1.17368197    1.70061195
 C         -1.21474802   -0.05084900    0.66446400
 C         -2.03778911   -0.39846799   -0.57862598
 O         -1.79259396    0.47420600   -1.66799700
 C         -1.68528605   -1.79685903   -1.07188404
 C         -1.69072700   -2.82632709    0.04920500
 C         -1.16891897   -4.18342590   -0.38735500
 O          0.16021000   -4.12244415   -0.89622599
 O         -0.82689500   -2.38747406    1.10509598
 O         -2.61590910   -2.22609091   -2.05870008
 O         -1.48234200    1.14921296    1.26811802
 O         -2.51834702   -1.24613798    2.24147701
 H         -2.71158600   -2.95294404    0.42596701
 H         -0.49739599   -0.97820002    2.48976302
 H         -0.09291500   -0.02811300    0.28381699
 H         -3.09854293   -0.37504101   -0.29363400
 H         -0.67764699   -1.75746799   -1.50072503
 C         -2.60213709   -2.12994790    3.35959005
 H         -1.77310503    1.85728204    0.60608798
 H         -1.22459602   -4.86877489    0.46575901
 H         -1.79843605   -4.57235003   -1.18806899
 H         -2.63954401   -1.54459405   -2.74218988
 H         -2.04529309    1.38961506   -1.41375005
 H          0.72448498   -3.77490711   -0.19483800
 H         -1.87648499   -1.84252095    4.12822914
 H         -2.42091489   -3.16528702    3.05825591
 H         -3.61227489   -2.03820300    3.75693107
 C          2.79046106    2.33295488   -0.29991901
 C          1.33306801    1.79103398   -0.29836601
 C          3.75068092    1.14538598   -0.17291801
 C          3.42266297    0.11767100   -1.26243103
 C          1.99400795   -0.44652101   -1.00606501
 N          1.40334105    0.37179801    0.05817600
 H          2.93283796    3.02413702    0.53312999
 H          0.70806903    2.29983091    0.43441299
 H          4.78251410    1.48510504   -0.27818900
 H          3.46262193    0.58606601   -2.24772000
 H          2.01354194   -1.48014498   -0.66184402
 H          2.96736789    2.87801695   -1.22853899
 H          0.86619103    1.86101103   -1.28005397
 C          3.54926300    0.49321800    1.19806802
 H          4.14092922   -0.70360303   -1.24591303
 H          1.36076105   -0.36900899   -1.88880098
 C          2.04184008    0.14725500    1.35909402
 H          3.85050702    1.17173302    1.99778795
 H          4.14818287   -0.41596401    1.27793097
 H          1.54719996    0.79153001    2.08572602
 H          1.89204705   -0.89596599    1.63518703
 H         -2.47174191    4.57038403   -2.48724008
 H         -0.93514103    3.73636508   -2.71268010
 O         -2.24762011    2.84592605   -0.51529002
 C         -1.46448302    4.45575714   -2.08114195
 C         -1.53354502    3.90316391   -0.66652298
 O         -0.91214699    4.46137094    0.25256100
 H         -0.94178802    5.41127586   -2.10782099
