55
wb97x-d4 ma-def2-tzvp(-f) cpcm(dmso) E: -1285.242747671279, G: -1284.82313438
 C         -1.09337103   -0.70556903    1.38351703
 C         -0.81096202    0.35534400    0.31705999
 C         -1.56971002    0.08757100   -0.98246503
 O         -1.10554898    0.89020097   -2.05456209
 C         -1.38802600   -1.36148500   -1.41230297
 C         -1.69249701   -2.31676006   -0.26723501
 C         -1.38172901   -3.75622702   -0.62596899
 O         -1.74106896   -4.65197706    0.42064500
 O         -0.85918897   -1.99356401    0.85394698
 O         -2.25621796   -1.66885900   -2.49496794
 O         -0.92647302    1.61600196    0.83961600
 O         -2.40849495   -0.53543401    1.82374501
 H         -2.74643707   -2.22917795    0.01711800
 H         -0.39448500   -0.60446101    2.22133899
 H          0.32190099    0.18366100    0.03812900
 H         -2.63699293    0.27083099   -0.79894602
 H         -0.34343800   -1.50343502   -1.71808505
 C         -2.71757889   -1.33000505    2.96870899
 H         -1.26306701    2.28131890    0.15365499
 H         -1.96082795   -4.04387712   -1.50344896
 H         -0.31428599   -3.84480691   -0.86392802
 H         -2.12562394   -0.98326498   -3.16277909
 H         -1.39439201    1.81170595   -1.88387895
 H         -1.25506306   -4.38339376    1.20995605
 H         -2.01755190   -1.11323094    3.78301311
 H         -2.67850089   -2.39641595    2.72993302
 H         -3.72835398   -1.06167305    3.27365708
 C          3.83461690   -0.11500300   -1.49005497
 C          2.32069707   -0.42666301   -1.30707896
 C          4.35671520    0.53381503   -0.20313300
 C          3.97201204   -0.35276699    0.98613000
 C          2.42362094   -0.33679199    1.12680805
 N          1.89161801    0.27624199   -0.09362800
 H          3.97555304    0.55864298   -2.33757591
 H          1.72406995   -0.06456200   -2.14313293
 H          5.44081306    0.64869899   -0.25211200
 H          4.32028198   -1.37490296    0.82476097
 H          2.09522200    0.26738501    1.97224402
 H          4.36662722   -1.04421604   -1.70058203
 H          2.13530302   -1.49001896   -1.15907896
 C          3.68827605    1.90276003   -0.03290100
 H          4.41862917    0.01850400    1.90987206
 H          2.00971794   -1.34095204    1.21406698
 C          2.14900589    1.71527195   -0.16027300
 H          4.02551222    2.60005999   -0.80138898
 H          3.93470907    2.32502794    0.94332898
 H          1.76877105    2.07546806   -1.11547399
 H          1.60538995    2.19961691    0.65047699
 H         -4.74545813    3.84017897    0.40274999
 H         -3.17786193    3.73902988    1.25121498
 O         -3.59193707    4.26222706   -1.81797504
 C         -3.76070094    3.37474895    0.40211800
 C         -3.01876092    3.66055608   -0.89606899
 O         -1.80484498    3.24141693   -0.95920199
 H         -3.86961508    2.29321790    0.52041602
