55
wb97x-d4 ma-def2-tzvp(-f) cpcm(dmso) E: -1285.242521193045, G: -1284.82313058
 C         -1.01272702   -1.42988205    1.24308002
 C         -0.81532902   -0.05164200    0.61052698
 C         -1.70700598    0.15557800   -0.61744398
 O         -1.32903004    1.28560197   -1.38464999
 C         -1.62190402   -1.04579103   -1.55081105
 C         -1.82589900   -2.35023904   -0.79519802
 C         -1.59694302   -3.56779909   -1.66837895
 O         -1.84550297   -4.77580881   -0.95681298
 O         -0.86268097   -2.43477893    0.26303500
 O         -2.61525297   -0.95553499   -2.56409001
 O         -0.85853899    0.92492998    1.56875896
 O         -2.27222991   -1.45197594    1.84773898
 H         -2.83795190   -2.38368607   -0.37858200
 H         -0.23056000   -1.62944901    1.98429203
 H          0.28255299   -0.08621900    0.17786799
 H         -2.74327898    0.25638801   -0.26751599
 H         -0.62272400   -1.05763805   -2.00534797
 C         -2.49816203   -2.63291693    2.61729693
 H         -1.12887096    1.82794094    1.18966198
 H         -2.28656507   -3.54701304   -2.51219392
 H         -0.56937599   -3.54729009   -2.05249810
 H         -2.52581596   -0.08298900   -2.96844101
 H         -1.51439595    2.09206796   -0.85788500
 H         -1.26659095   -4.77868414   -0.18456499
 H         -3.43549991   -2.48442006    3.15216708
 H         -1.68438101   -2.78254294    3.33550191
 H         -2.58017206   -3.51338100    1.97394097
 C          4.00475407   -0.19688100    0.96454698
 C          2.47169089   -0.40162700    1.13899100
 C          4.23862982    0.70488298   -0.25196400
 C          3.43675590    1.99716306   -0.06702600
 C          1.92142999    1.64240396   -0.07063700
 N          1.82290804    0.18189999   -0.03791400
 H          4.49185610   -1.16312099    0.81997502
 H          2.20616388   -1.45736802    1.18569696
 H          5.30123281    0.93453199   -0.34844500
 H          3.70591998    2.47673893    0.87591201
 H          1.41892302    1.98707998   -0.97260398
 H          4.41307783    0.25956899    1.86757398
 H          2.08507800    0.11043900    2.01982999
 C          3.74138904   -0.01584200   -1.50994003
 H          3.64099789    2.69904304   -0.87724400
 H          1.40520799    2.03706288    0.80426699
 C          2.25982404   -0.44207501   -1.29018497
 H          4.34425783   -0.90327400   -1.70959306
 H          3.81023192    0.64507401   -2.37602806
 H          2.15056109   -1.52079594   -1.18328500
 H          1.61286497   -0.08846200   -2.09173298
 H         -2.50442696    5.65104723    0.06436300
 H         -4.11955404    5.22877598    0.68451500
 O         -3.01899600    3.48912096    2.17822003
 C         -3.22216105    4.83861780    0.20561001
 C         -2.57681704    3.74923205    1.04722095
 O         -1.56761599    3.16046810    0.51283699
 H         -3.46935010    4.44347286   -0.78241301
