53
energy: -1512.630943898557
 C         -4.51549292   -1.51051795   -1.16323602
 C         -3.57588506   -0.41457200   -0.69556803
 H         -5.51052189   -1.07775295   -1.30963099
 O         -4.57133389   -2.61175704   -0.25919101
 H         -4.16386080   -1.90186799   -2.11680508
 O         -4.08393908    0.03794800    0.56808603
 C         -2.12761092   -0.89466000   -0.51900500
 H         -3.59420705    0.40068701   -1.42525601
 C         -1.30551696    0.18879400    0.14459200
 O         -1.60100400   -1.17630804   -1.81434703
 H         -2.13206410   -1.78788602    0.10884900
 C         -3.39096999    1.13050795    1.14558995
 H         -4.88326597   -2.27512407    0.59161198
 O         -0.81352597    1.13543999   -0.71014899
 O         -3.41298604    2.27395296    0.34316900
 H         -0.87079000   -1.80376196   -1.71911597
 H         -0.74686402    0.71782702   -1.58846796
 C         -4.70087719    2.88989711    0.24928100
 C         -1.91642594    0.75642598    1.40033197
 H         -3.90141797    1.31544602    2.09569502
 H         -1.92575204   -0.02859500    2.15842891
 O         -1.19026196    1.84218299    1.93973398
 H         -1.25143600    2.57398391    1.30902398
 C          2.35908198   -0.79932302    0.45032701
 C          2.28021002   -0.92844301   -1.07809699
 C          3.54664803   -0.33436301   -1.71802497
 H          2.17523694   -1.98131394   -1.35217595
 H          1.39739001   -0.40389201   -1.44771397
 C          3.66665411    1.14745498   -1.33346498
 C          3.75676894    1.27461696    0.19434500
 H          4.55580521    1.58346999   -1.79909694
 H          2.79959202    1.70267498   -1.70475399
 C          2.48813891    0.68291402    0.83265901
 H          2.53291798    0.77711898    1.92056501
 H          1.60764897    1.22956705    0.48979300
 C          3.59598994   -1.56304801    0.95469701
 S          0.88209301   -1.56678402    1.26025605
 C          4.77815390   -1.09850299   -1.21117795
 H          3.47380710   -0.42941999   -2.80511999
 C          4.86492109   -0.97148401    0.31649899
 H          4.70879078   -2.15262103   -1.49743605
 H          5.68565083   -0.69628501   -1.67179596
 H          5.73471403   -1.52275503    0.68455303
 C          4.98716307    0.50962597    0.70269197
 H          3.65627098   -1.49135399    2.04416490
 H          3.50654006   -2.62240911    0.69813699
 H          5.06585693    0.60756999    1.78995097
 H          3.83578706    2.32906103    0.47383100
 H          5.89877605    0.93503302    0.27186301
 H         -0.14894900   -0.62619197    0.69008303
 H         -5.40629292    2.24435210   -0.27790999
 H         -4.56563711    3.81356597   -0.30918401
 H         -5.09012985    3.11597490    1.24649096
