53
energy: -1512.627838093316
 C         -3.89988494   -2.00484991    0.70577198
 C         -3.32596993   -0.68995798    0.19435000
 H         -3.11974406   -2.55598998    1.24482799
 O         -4.45189190   -2.79120708   -0.34605700
 H         -4.70916986   -1.78847206    1.40415299
 O         -3.00933003    0.09222100    1.35430503
 C         -2.03509498   -0.88762200   -0.62775499
 H         -4.07473516   -0.17819700   -0.41711599
 C         -1.46886694    0.45924500   -0.98051202
 O         -2.25691390   -1.70583200   -1.77287698
 H         -1.32040906   -1.41907001    0.00355500
 C         -2.56148911    1.40291297    1.08502698
 H         -3.78271794   -2.82636690   -1.04848099
 O         -2.08276391    0.99939799   -2.08125901
 O         -3.51368809    2.18796492    0.42109999
 H         -2.66569901   -1.15985405   -2.46080995
 H         -1.82603598    1.93454802   -2.14422607
 C         -4.63716078    2.54995298    1.23285997
 C         -1.29417801    1.38634503    0.20383599
 H         -2.33187389    1.82978106    2.06583691
 H         -0.48551199    1.00596297    0.82881701
 O         -0.95491803    2.69570398   -0.22687200
 H         -1.77211499    3.21890497   -0.21934700
 C          2.37981391   -0.22921699   -0.81786901
 C          2.55827188    1.12520695   -0.11534100
 C          3.59677291    0.99605697    1.01244104
 H          2.88133788    1.87442994   -0.84245700
 H          1.60458004    1.46131897    0.29500499
 C          3.12089801   -0.05327600    2.02749896
 C          2.96030688   -1.40973103    1.32578003
 H          3.84312296   -0.13808800    2.84524703
 H          2.16734505    0.25667700    2.46643710
 C          1.91917706   -1.28273594    0.20061700
 H          1.78424001   -2.24369097   -0.30204201
 H          0.95393300   -0.99810201    0.62568998
 C          3.73199701   -0.66502702   -1.41199303
 S          1.20056105   -0.10222900   -2.23798490
 C          4.94248486    0.56194001    0.41475800
 H          3.70662189    1.96545696    1.50663400
 C          4.77549410   -0.79250401   -0.28842399
 H          5.29587412    1.31383896   -0.29758501
 H          5.69593382    0.48156700    1.20424604
 H          5.72822809   -1.10253096   -0.72658902
 C          4.30637503   -1.84275699    0.72859699
 H          3.61824012   -1.62248302   -1.92745697
 H          4.06502008    0.06964200   -2.15043211
 H          4.20464516   -2.81772494    0.24188000
 H          2.61561799   -2.15899992    2.04398203
 H          5.05117893   -1.95136094    1.52285898
 H         -0.07884800    0.16899900   -1.47871804
 H         -5.22045708    1.66750205    1.50141203
 H         -5.24728203    3.22479510    0.63697201
 H         -4.30222797    3.05817199    2.14144707
