53
energy: -1512.628507780656
 C         -3.34087300   -1.77613199   -1.37629700
 C         -3.06031990   -0.47853199   -0.62840801
 H         -2.52279592   -2.48406291   -1.19640899
 O         -3.53649402   -1.56045794   -2.77122903
 H         -4.26203680   -2.21155906   -0.98763198
 O         -3.13863111   -0.78663403    0.76708603
 C         -1.66066599    0.08627800   -0.92553401
 H         -3.81516409    0.26570201   -0.89783603
 C         -1.40135002    1.27993906   -0.03785600
 O         -1.61928797    0.46853799   -2.30398297
 H         -0.92676097   -0.69593900   -0.71557701
 C         -3.00425196    0.32924500    1.63328898
 H         -2.80024409   -1.00941300   -3.07931709
 O         -1.95093298    2.45477009   -0.47629800
 O         -3.99665594    1.29259098    1.43998802
 H         -0.69434601    0.53631097   -2.58196592
 H         -2.00136089    2.40969491   -1.44745302
 C         -5.29266024    0.88984001    1.89269900
 C         -1.63304305    1.01019704    1.42859197
 H         -3.06512809   -0.09189000    2.64117289
 H         -0.88425797    0.29249299    1.76364994
 O         -1.49663997    2.15738297    2.24146390
 H         -2.23061490    2.75184798    2.02902007
 C          2.46343899    0.50447202   -0.18573800
 C          2.01450896   -0.33471999    1.01937306
 C          2.91149998   -1.57805002    1.15192103
 H          2.06178594    0.26791501    1.92975104
 H          0.97779697   -0.65058899    0.88522798
 C          2.80149508   -2.42362404   -0.12525700
 C          3.25843096   -1.59097302   -1.33192301
 H          3.42121410   -3.32083297   -0.03446600
 H          1.76817799   -2.75523996   -0.26791400
 C          2.36524105   -0.34498700   -1.46203601
 H          2.67292905    0.25248000   -2.32378197
 H          1.32882595   -0.64911801   -1.62678397
 C          3.92793012    0.93554401    0.01735900
 S          1.48088801    2.06617594   -0.33675301
 C          4.36849403   -1.13885498    1.35424399
 H          2.57863402   -2.16395307    2.01319504
 C          4.82364321   -0.30805901    0.14598700
 H          4.45768595   -0.54661101    2.27020502
 H          5.01247120   -2.01595998    1.46946800
 H          5.85810614    0.01652500    0.28877899
 C          4.71623182   -1.15395105   -1.13068998
 H          4.25437593    1.54559898   -0.82967901
 H          4.00895119    1.55068803    0.91736197
 H          5.05773783   -0.57522303   -1.99460196
 H          3.17278099   -2.18602991   -2.24544096
 H          5.36285114   -2.03307509   -1.05126500
 H          0.07777500    1.53133202   -0.15325899
 H         -5.67181587    0.05358300    1.30172098
 H         -5.94783115    1.74938405    1.76905000
 H         -5.25631523    0.60320801    2.94788909
