53
energy: -1512.628670337117
 C         -3.21938896   -2.29899406    0.48118699
 C         -3.00921392   -0.81708801    0.19864701
 H         -2.31826091   -2.71623492    0.94633597
 O         -3.57099795   -3.02011800   -0.69672698
 H         -4.04817915   -2.40780997    1.18154299
 O         -2.94389796   -0.15571600    1.46638000
 C         -1.70226598   -0.53594297   -0.56178701
 H         -3.85443211   -0.43983001   -0.38388100
 C         -1.50262594    0.95633799   -0.68433601
 O         -1.80659699   -1.13377094   -1.85802996
 H         -0.87838697   -0.97507399    0.00663600
 C         -2.87900090    1.25962305    1.38750398
 H         -2.92016292   -2.78587604   -1.37635398
 O         -2.19257212    1.54542601   -1.70964098
 O         -3.98455310    1.81951702    0.74317098
 H         -0.91777498   -1.25888705   -2.21962309
 H         -2.29871988    0.87795401   -2.41061401
 C         -5.20005703    1.72586596    1.49263406
 C         -1.61038899    1.70019603    0.62546098
 H         -2.82576895    1.59554100    2.42737103
 H         -0.76547903    1.41136098    1.25087297
 O         -1.55516505    3.10428596    0.47998300
 H         -2.36652589    3.38031507    0.02985200
 C          2.39048505    0.34157500   -0.72426301
 C          3.83263302    0.80850500   -0.99961603
 C          4.82507801   -0.09470800   -0.24706300
 H          4.03338718    0.77124798   -2.07400393
 H          3.95119810    1.84616005   -0.67706299
 C          4.54484320   -0.01440300    1.26027596
 C          3.11052895   -0.48489699    1.53892100
 H          5.25755119   -0.63886398    1.80766201
 H          4.67670298    1.01358104    1.61201096
 C          2.11921501    0.41821101    0.78483301
 H          1.09824800    0.09333600    0.99640203
 H          2.21273994    1.45262301    1.12474298
 C          2.23847890   -1.11137605   -1.19920504
 S          1.28463900    1.48340702   -1.67534006
 C          4.66158819   -1.54518902   -0.72259700
 H          5.84189892    0.25022301   -0.45402399
 C          3.22727704   -2.01578689   -0.44345999
 H          4.87689400   -1.61572695   -1.79337895
 H          5.37672377   -2.19144797   -0.20444600
 H          3.10188699   -3.04576492   -0.78900200
 C          2.94196105   -1.93495798    1.06306899
 H          1.21715796   -1.45681500   -1.02282500
 H          2.42192888   -1.16510499   -2.27507210
 H          1.92437899   -2.28054905    1.27076495
 H          2.90236998   -0.42122599    2.61063409
 H          3.62607193   -2.59063506    1.61037898
 H         -0.06225000    1.12287605   -1.08503997
 H         -5.95389223    2.27750993    0.93526602
 H         -5.07325792    2.17258692    2.48314810
 H         -5.51341105    0.68560100    1.60058498
