53
energy: -1512.628431112538
 C         -3.30683494   -2.18674302   -0.79883099
 C         -3.05771804   -0.75922799   -0.32806700
 H         -2.43853807   -2.80979109   -0.55289602
 O         -3.60598111   -2.24683189   -2.19062805
 H         -4.17346811   -2.58281112   -0.26852900
 O         -3.03379512   -0.79644501    1.10236597
 C         -1.71397996   -0.19455300   -0.81783903
 H         -3.86994600   -0.11686300   -0.67978901
 C         -1.48529303    1.16420197   -0.19975901
 O         -1.76711500   -0.09171900   -2.24422407
 H         -0.92242402   -0.87977898   -0.50392801
 C         -2.93054008    0.47320801    1.72737801
 H         -2.91817188   -1.74076700   -2.65029693
 O         -2.13326907    2.19632792   -0.82410997
 O         -4.00009823    1.31815803    1.42267203
 H         -0.86377400   -0.03600500   -2.58793712
 H         -2.22578692    1.95860898   -1.76366794
 C         -5.24119997    0.91488200    2.00909901
 C         -1.62398899    1.18140399    1.30316305
 H         -2.90347600    0.25420001    2.79905796
 H         -0.80957103    0.59192502    1.72451699
 O         -1.52871501    2.47468209    1.86359501
 H         -2.30710912    2.97363496    1.57681203
 C          2.41622210    0.58617598   -0.45317400
 C          2.26742911   -0.55747098   -1.46832001
 C          3.25370193   -1.68915105   -1.12981105
 H          1.24542701   -0.94257200   -1.44725096
 H          2.45594597   -0.18055500   -2.47655392
 C          4.68882513   -1.14749002   -1.19148898
 C          4.84776688   -0.00694600   -0.17640200
 H          5.40154696   -1.94724405   -0.96863902
 H          4.91009188   -0.78596300   -2.20052195
 C          3.85888410    1.12291205   -0.51025897
 H          3.97437692    1.94348001    0.20274900
 H          4.06759214    1.52114904   -1.50726795
 C          2.13409591    0.05268600    0.95886099
 S          1.31479800    2.01476502   -0.87248898
 C          2.96199703   -2.21534610    0.28296500
 H          3.13131094   -2.49640012   -1.85734200
 C          3.12465501   -1.07465303    1.29822505
 H          1.94494700   -2.61684108    0.33002001
 H          3.64672208   -3.03334689    0.52643502
 H          2.91089392   -1.44222295    2.30574012
 C          4.56014919   -0.53282398    1.23707902
 H          2.21727109    0.86514002    1.68491995
 H          1.11359406   -0.33319899    1.01053405
 H          4.69038677    0.26980001    1.96962905
 H          5.86527920    0.39102399   -0.22310600
 H          5.27004910   -1.32533002    1.49248695
 H         -0.03580900    1.45925200   -0.46539101
 H         -5.13890696    0.82177299    3.09443903
 H         -5.57940006   -0.03616900    1.59309494
 H         -5.96460390    1.69274104    1.77488101
