53
energy: -1512.628631883494
 C         -3.49615002   -1.34372604   -1.82679605
 C         -3.05951595   -0.27031299   -0.85158998
 H         -2.91877604   -1.25329494   -2.74500704
 O         -4.86993408   -1.20544100   -2.18596601
 H         -3.30578709   -2.32988501   -1.38772094
 O         -3.82632804   -0.48465100    0.34615999
 C         -1.55697501   -0.34880701   -0.51406097
 H         -3.28632498    0.71660602   -1.26518798
 C         -1.25623906    0.64565700    0.57827401
 O         -0.75681800   -0.15107200   -1.66708803
 H         -1.34325802   -1.35482097   -0.14544800
 C         -3.65307403    0.48971000    1.34918499
 H         -5.38901377   -1.26300001   -1.37240303
 O         -1.03059900    1.89935398    0.07502100
 O         -4.02993584    1.77867401    0.94616801
 H         -0.72630203    0.79783100   -1.85482204
 H         -1.03925800    2.53246307    0.81212503
 C         -5.43966389    1.93913198    0.75221300
 C         -2.17631292    0.56586599    1.78220701
 H         -4.27672482    0.15348400    2.18308210
 H         -1.95507896   -0.35704699    2.32201409
 O         -1.95607603    1.65974796    2.66042709
 H         -2.63703895    2.32343006    2.46690607
 C          2.48035312   -0.35527700    0.71283400
 C          2.17828202   -1.56031203   -0.18991600
 C          3.27997398   -1.70031595   -1.25520599
 H          2.12806392   -2.46712804    0.41832101
 H          1.20768297   -1.42622304   -0.66991001
 C          3.33630204   -0.42256999   -2.10523295
 C          3.64860892    0.77947801   -1.20201898
 H          4.10619307   -0.51965398   -2.87704110
 H          2.38132596   -0.26935700   -2.61678505
 C          2.54558301    0.92127299   -0.13878900
 H          2.74826288    1.78102505    0.50523698
 H          1.58258605    1.09251904   -0.62238503
 C          3.83919001   -0.57023603    1.40361404
 S          1.22243702   -0.20027100    2.06033802
 C          4.63235998   -1.91638398   -0.56087703
 H          3.05097103   -2.55876398   -1.89308000
 C          4.94265985   -0.71298999    0.34121200
 H          4.60375881   -2.83366299    0.03548300
 H          5.42391109   -2.03752589   -1.30672204
 H          5.90051222   -0.86632901    0.84613299
 C          5.00187206    0.56347197   -0.51011300
 H          4.05764008    0.27530900    2.06156707
 H          3.80009604   -1.47002006    2.02404809
 H          5.24313593    1.42491698    0.12065200
 H          3.68174791    1.69354403   -1.80171204
 H          5.79582405    0.47631899   -1.25820994
 H          0.03305600    0.19855000    1.21836901
 H         -5.98388815    1.66173804    1.65943694
 H         -5.78709602    1.32928097   -0.08359100
 H         -5.60548019    2.99104500    0.53099298
