53
energy: -1512.627754229468
 C         -4.46521091   -1.89950800   -0.43008900
 C         -3.55228496   -0.68581301   -0.31117499
 H         -4.37612009   -2.51013207    0.47641799
 O         -4.18431997   -2.66591406   -1.59718597
 H         -5.49719715   -1.55659199   -0.51192403
 O         -4.08512688    0.11655400    0.75321299
 C         -2.11157608   -1.06028700    0.06489300
 H         -3.56060696   -0.12865800   -1.25176203
 C         -1.30981803    0.19742200    0.26655701
 O         -1.56781995   -1.91121995   -0.93902802
 H         -2.15977311   -1.58516896    1.02560496
 C         -3.42789507    1.34515405    0.97583598
 H         -3.23129201   -2.84868312   -1.58757305
 O         -0.87360501    0.77426898   -0.89108300
 O         -3.50136709    2.21611500   -0.12017200
 H         -0.73880601   -2.27955294   -0.59745300
 H         -0.57436299    1.67467999   -0.67856002
 C         -4.81182480    2.74180508   -0.35916600
 C         -1.92725599    1.13689005    1.28177798
 H         -3.93402290    1.78018200    1.84281600
 H         -1.86088598    0.67870700    2.27033997
 O         -1.23951995    2.37864900    1.31233299
 H         -1.74908400    3.00158095    0.77003199
 C          2.37905693   -0.61856902    0.63229197
 C          2.54936504    0.89893401    0.79816401
 C          3.77396202    1.37500095   -0.00180700
 H          1.65230703    1.41591597    0.45072699
 H          2.67392302    1.13802600    1.85732603
 C          5.02973413    0.66589999    0.52487302
 C          4.86743212   -0.85217500    0.36032799
 H          5.91252995    1.00898600   -0.02339100
 H          5.18607092    0.91401303    1.57937002
 C          3.63977909   -1.32622600    1.15864301
 H          3.52431893   -2.40921998    1.06079495
 H          3.77483606   -1.10260499    2.22048998
 C          2.19431496   -0.95986700   -0.85374397
 S          0.95256299   -1.23435903    1.63854098
 C          3.57661510    1.03763497   -1.48696899
 H          3.88052297    2.45646310    0.12112800
 C          3.41934395   -0.48114601   -1.65174198
 H          2.69007611    1.55024099   -1.87311399
 H          4.43468904    1.38990700   -2.06762195
 H          3.27252412   -0.72470200   -2.70782304
 C          4.67545986   -1.18924499   -1.12528896
 H          2.07136798   -2.04045010   -0.96560198
 H          1.28868496   -0.48455000   -1.23307800
 H          4.57677221   -2.27155995   -1.25441897
 H          5.75523376   -1.36249101    0.74393100
 H          5.55368090   -0.87301099   -1.69662702
 H         -0.11655100   -0.39800999    0.97670102
 H         -5.49637794    1.95044994   -0.66937202
 H         -4.71273613    3.47346807   -1.15775597
 H         -5.19754410    3.22710395    0.54182202
