53
energy: -1512.63057819142
 C         -3.16491890   -0.98961502   -2.10392189
 C         -2.97211695   -0.00828300   -0.96258903
 H         -4.19309378   -1.36433196   -2.07172608
 O         -2.23272896   -2.06860399   -2.07321000
 H         -3.01453805   -0.47178900   -3.05003500
 O         -3.20028710   -0.74255300    0.24889900
 C         -1.56236398    0.60135800   -0.92861402
 H         -3.70759296    0.79581302   -1.06166303
 C         -1.37605095    1.40080798    0.34237301
 O         -1.43322897    1.45382297   -2.06462598
 H         -0.83919400   -0.21487500   -0.96133101
 C         -3.15628600    0.02667100    1.43842399
 H         -2.36321712   -2.54686093   -1.24341094
 O         -1.84749806    2.68501496    0.28034100
 O         -4.11566687    1.04197502    1.46569395
 H         -0.49414301    1.56724298   -2.26664305
 H         -1.81234300    2.95336390   -0.65613198
 C         -5.45856380    0.56399000    1.58821106
 C         -1.76586294    0.67405599    1.60577798
 H         -3.33328295   -0.69305801    2.24350309
 H         -1.06530797   -0.14735900    1.75775504
 O         -1.70468605    1.48578203    2.76129293
 H         -2.38188004    2.17135310    2.66935611
 C          2.43180704    0.44287601    0.16379200
 C          1.88502598   -0.77987200    0.91396999
 C          2.68937111   -2.03214598    0.52425498
 H          1.94458199   -0.60828203    1.99168503
 H          0.83290601   -0.93108600    0.66320699
 C          2.56914592   -2.26428294   -0.98922402
 C          3.12925196   -1.04805803   -1.74077296
 H          3.11987805   -3.16592407   -1.27385604
 H          1.52086496   -2.42232609   -1.26147699
 C          2.32725406    0.20491900   -1.34966397
 H          2.70268607    1.08022702   -1.88522696
 H          1.28100097    0.07069300   -1.63289797
 C          3.91306591    0.64020801    0.53710002
 S          1.55771995    1.99669302    0.66372502
 C          4.16451311   -1.82916701    0.89825499
 H          2.28664207   -2.89401007    1.06358802
 C          4.71911478   -0.61070102    0.14677300
 H          4.26096392   -1.68051898    1.97821999
 H          4.74193621   -2.72180390    0.63924700
 H          5.76668406   -0.45324001    0.41810700
 C          4.60398293   -0.84489101   -1.36626101
 H          4.31033278    1.51856303    0.02043500
 H          4.00143385    0.82226902    1.61141503
 H          5.01608086    0.01005200   -1.91138995
 H          3.03853011   -1.20537496   -2.81915307
 H          5.18824291   -1.72476804   -1.65244496
 H          0.11309100    1.57605600    0.47095799
 H         -5.75408888   -0.00304100    0.70319903
 H         -6.09461212    1.44078302    1.68841004
 H         -5.55965805   -0.06801400    2.47554588
