53
energy: -1512.630188971193
 C         -3.15907097   -2.27159190   -0.12882000
 C         -2.99909902   -0.76314402   -0.17023000
 H         -4.13340378   -2.50659490    0.31163001
 O         -2.11077905   -2.91796708    0.59051502
 H         -3.13390708   -2.66372895   -1.14440203
 O         -3.03306007   -0.31698999    1.19310606
 C         -1.67774200   -0.31885800   -0.81640899
 H         -3.83488894   -0.33397901   -0.73091400
 C         -1.49056304    1.17093801   -0.63240302
 O         -1.74711394   -0.63410300   -2.20546198
 H         -0.86527300   -0.85710698   -0.32626000
 C         -2.98534703    1.08759296    1.37118697
 H         -2.12472606   -2.57853007    1.49562597
 O         -2.12651491    1.94315505   -1.56695700
 O         -4.05823803    1.74871004    0.76789600
 H         -0.84867799   -0.70345002   -2.55684996
 H         -2.20072794    1.40417099   -2.37577009
 C         -5.31390095    1.52035403    1.41449404
 C         -1.67814302    1.65757096    0.78334397
 H         -3.00316501    1.23319602    2.45558810
 H         -0.86957502    1.25418901    1.39365697
 O         -1.62451005    3.06456494    0.90466601
 H         -2.40191698    3.42290998    0.45276400
 C          2.36082101    0.44041100   -0.58431602
 C          3.83924294    0.86215502   -0.67605901
 C          4.73530483   -0.25710601   -0.11744900
 H          4.10299921    1.06776202   -1.71733499
 H          3.99434090    1.78407001   -0.10923100
 C          4.37340879   -0.51564997    1.35198796
 C          2.90104389   -0.93974602    1.44818795
 H          5.01603222   -1.30034494    1.76264799
 H          4.54343414    0.38834500    1.94496703
 C          2.00743794    0.18024500    0.88749099
 H          0.95940602   -0.11332300    0.97380400
 H          2.13932109    1.09797800    1.46588004
 C          2.15890598   -0.84863597   -1.39565003
 S          1.37304401    1.84113002   -1.28741300
 C          4.52192879   -1.54073095   -0.93201298
 H          5.77954578    0.05898800   -0.19139899
 C          3.05097389   -1.96864903   -0.83407003
 H          4.79258823   -1.36989796   -1.97860599
 H          5.17133617   -2.33606100   -0.55373001
 H          2.89010191   -2.87823701   -1.41940904
 C          2.68196797   -2.22365499    0.63437903
 H          1.11243606   -1.15838599   -1.34794903
 H          2.39778996   -0.66205800   -2.44540691
 H          1.63694704   -2.54056191    0.70758802
 H          2.63427210   -1.11483395    2.49419403
 H          3.29708099   -3.03251290    1.04002500
 H         -0.02762500    1.40827501   -0.90164101
 H         -6.04173088    2.15883589    0.91858101
 H         -5.25189209    1.78609002    2.47393799
 H         -5.61905289    0.47627500    1.31946802
