53
energy: -1512.630655064228
 C         -4.49932814   -1.26524401   -1.36712897
 C         -3.54471493   -0.31221101   -0.67607099
 H         -4.17614079   -1.41932404   -2.39526200
 O         -5.82342100   -0.73845899   -1.42356801
 H         -4.48562098   -2.22965503   -0.84640998
 O         -4.01133394   -0.18916500    0.67604798
 C         -2.09901595   -0.82622403   -0.66105402
 H         -3.57578611    0.66289800   -1.17003703
 C         -1.25397098    0.07913200    0.21292400
 O         -1.60486400   -0.80529499   -1.99830997
 H         -2.09015489   -1.84037602   -0.25209099
 C         -3.30996108    0.75386500    1.46866405
 H         -6.10879803   -0.57763600   -0.51386797
 O         -0.78056800    1.19466805   -0.41868800
 O         -3.36719704    2.05137300    0.95463699
 H         -0.86256200   -1.42308795   -2.06058908
 H         -0.73553002    0.98623502   -1.36997104
 C         -4.66595507    2.64691901    1.03505099
 C         -1.82551301    0.34788600    1.58284998
 H         -3.78889894    0.70580202    2.45143008
 H         -1.80769503   -0.58650202    2.14660811
 O         -1.08219397    1.29155600    2.32677889
 H         -1.16173899    2.14489698    1.87689400
 C          2.41899300   -0.95576799    0.22982000
 C          3.65286803   -1.82796395    0.52095598
 C          4.92214918   -1.10604405    0.03633900
 H          3.72105598   -2.02559710    1.59428596
 H          3.55294800   -2.79158902    0.01355200
 C          4.82296610   -0.85331202   -1.47488499
 C          3.59512305    0.02095900   -1.76754701
 H          5.73108387   -0.35784701   -1.83171499
 H          4.74118614   -1.80472100   -2.00971889
 C          2.32802105   -0.70405602   -1.28258598
 H          1.44646895   -0.09947700   -1.50367498
 H          2.21226597   -1.65672898   -1.80569899
 C          2.56306601    0.38542801    0.96470499
 S          0.94275999   -1.89171004    0.83754200
 C          5.05969381    0.23382901    0.77384597
 H          5.78977203   -1.73649502    0.25002101
 C          3.83203101    1.10811901    0.48040000
 H          5.14679384    0.06097600    1.85107398
 H          5.97148800    0.74646902    0.45233601
 H          3.92158604    2.06075597    1.01015496
 C          3.73036003    1.36172104   -1.03072202
 H          1.68491495    1.00619900    0.77627099
 H          2.61674190    0.20834200    2.04186296
 H          2.86554098    1.99685395   -1.24657905
 H          3.51442504    0.19687600   -2.84394002
 H          4.61997890    1.89332402   -1.38208497
 H         -0.08918100   -0.83883500    0.52267498
 H         -5.37674618    2.12312293    0.39273199
 H         -4.55943298    3.67560005    0.69784898
 H         -5.02930498    2.63328910    2.06701803
