53
energy: -1512.630515406639
 C         -3.84680390   -2.16554999   -0.01978100
 C         -3.34339404   -0.73540199   -0.08059400
 H         -4.77265692   -2.18541503    0.56431699
 O         -2.88593602   -3.06752396    0.52424198
 H         -4.06650114   -2.50991011   -1.02932799
 O         -3.07143092   -0.34430501    1.27409804
 C         -2.06137800   -0.58267403   -0.91121203
 H         -4.12769890   -0.10325700   -0.50809801
 C         -1.53262103    0.82712698   -0.76801300
 O         -2.37834692   -0.84886402   -2.27506089
 H         -1.32172298   -1.29074395   -0.53431398
 C         -2.65609002    0.99848902    1.45264804
 H         -2.68105412   -2.77026892    1.42106700
 O         -2.14110208    1.75241101   -1.57314599
 O         -3.61837411    1.92485404    1.04259300
 H         -1.55381095   -1.06002402   -2.73746896
 H         -2.46229005    1.27819097   -2.36149311
 C         -4.77257919    1.97224104    1.88644695
 C         -1.35957694    1.27445805    0.65936601
 H         -2.46421695    1.09150195    2.52596807
 H         -0.58627599    0.65673000    1.11722302
 O         -0.94625998    2.61958003    0.79057002
 H         -1.67697799    3.17831898    0.48901001
 C          2.26750994   -0.01813000   -0.99114400
 C          3.57138610   -0.36707801   -1.73152399
 C          4.65809393   -0.75278401   -0.71250200
 H          3.39378691   -1.19649804   -2.42151308
 H          3.90091395    0.49103501   -2.32372999
 C          4.91116905    0.42554101    0.23887600
 C          3.61272907    0.77085000    0.98209602
 H          5.69700289    0.16560400    0.95467001
 H          5.26043701    1.29539800   -0.32602501
 C          2.53052211    1.15903902   -0.04000100
 H          1.60849297    1.43402600    0.47637099
 H          2.85218000    2.02899003   -0.61807299
 C          1.80947900   -1.24158704   -0.18391700
 S          1.02774203    0.44657800   -2.28482699
 C          4.19196177   -1.97235096    0.09537400
 H          5.57680607   -0.99617201   -1.25331295
 C          2.89352202   -1.62743402    0.83704698
 H          4.02701187   -2.82375097   -0.57226998
 H          4.96672201   -2.26573610    0.81040502
 H          2.55070710   -2.49629211    1.40583897
 C          3.13978100   -0.44748700    1.78836596
 H          0.87865603   -1.01885200    0.34167999
 H          1.61198199   -2.07567501   -0.86188298
 H          2.21897507   -0.20419800    2.32779694
 H          3.78499198    1.61553597    1.65496397
 H          3.89214110   -0.71850502    2.53535295
 H         -0.16229500    0.68420398   -1.38254201
 H         -5.39530706    2.78489494    1.51875401
 H         -4.48081017    2.17138100    2.92191505
 H         -5.33013582    1.03465497    1.83990395
