53
energy: -1512.629485716398
 C         -3.08127189   -1.05625105   -2.14144111
 C         -2.88054490   -0.08640200   -0.99556798
 H         -2.86861491   -0.55424201   -3.08364797
 O         -4.43060780   -1.51509202   -2.21154904
 H         -2.38917994   -1.89875197   -2.02838206
 O         -3.14229202   -0.83252698    0.20520400
 C         -1.44779205    0.48647901   -0.94152200
 H         -3.59433794    0.73786199   -1.08275497
 C         -1.29886198    1.27126002    0.33571699
 O         -1.14154303    1.25363600   -2.09358692
 H         -0.75026000   -0.35324401   -0.92580402
 C         -3.13355803   -0.06208700    1.39657700
 H         -4.63986015   -1.92108905   -1.35931802
 O         -1.77534795    2.55124497    0.22527400
 O         -4.07421923    0.96674597    1.38388598
 H         -1.60909605    2.09863997   -2.02757597
 H         -1.95827401    2.87672806    1.12406695
 C         -5.42747021    0.50284702    1.41396201
 C         -1.72774506    0.53280401    1.58354497
 H         -3.35099792   -0.77691001    2.19639492
 H         -1.05727601   -0.31464401    1.73977005
 O         -1.72663999    1.40107000    2.70921397
 H         -0.80998600    1.49490499    3.00866199
 C          2.50980997    0.42069599    0.37241599
 C          1.98856902   -0.92703402    0.89250302
 C          2.84273291   -2.07158804    0.32054600
 H          2.02625299   -0.93586498    1.98462200
 H          0.94561398   -1.06412303    0.59868300
 C          2.76817393   -2.04674697   -1.21300006
 C          3.30542803   -0.70472699   -1.73069894
 H          3.35583496   -2.87051892   -1.62950599
 H          1.73323405   -2.18709207   -1.54030001
 C          2.45219994    0.44205400   -1.16208994
 H          2.82022905    1.40416896   -1.52744806
 H          1.41869700    0.34085301   -1.49800301
 C          3.97191191    0.59856999    0.82116902
 S          1.55669105    1.83620203    1.08971298
 C          4.29987001   -1.89057195    0.76873600
 H          2.45582795   -3.02366400    0.69440103
 C          4.83001804   -0.54548699    0.25236100
 H          4.36295509   -1.92594695    1.86078000
 H          4.91607094   -2.70746708    0.38089401
 H          5.86400414   -0.40510201    0.57946599
 C          4.76248503   -0.52509397   -1.28137004
 H          4.35284519    1.56133103    0.46954700
 H          4.02635717    0.60014403    1.91315699
 H          5.15863323    0.42122900   -1.66259098
 H          3.25006700   -0.68096602   -2.82267690
 H          5.38313580   -1.32722497   -1.69226801
 H          0.17691199    1.46496606    0.59201097
 H         -5.58763313   -0.15448400    2.27396107
 H         -5.68025589   -0.03241300    0.49639800
 H         -6.05687618    1.38535094    1.50574601
