53
energy: -1512.630793079443
 C         -4.35112381   -2.11695409   -0.43138200
 C         -3.47707200   -0.87988800   -0.37881601
 H         -3.96507692   -2.80132294   -1.18482399
 O         -5.69079113   -1.80216396   -0.80569398
 H         -4.32660818   -2.61763692    0.54338199
 O         -4.02417517   -0.04768400    0.65479100
 C         -2.01352310   -1.20131004   -0.04420900
 H         -3.52021194   -0.35787499   -1.33892202
 C         -1.25750697    0.09247300    0.18263800
 O         -1.45278001   -1.90642703   -1.14909601
 H         -1.98575103   -1.80555403    0.86692798
 C         -3.40614009    1.21999598    0.79527098
 H         -6.02906799   -1.16756499   -0.15938300
 O         -0.80859298    0.69465703   -0.95929801
 O         -3.48829389    1.99984801   -0.36060801
 H         -0.68355501   -2.40427899   -0.83804101
 H         -0.69081998   -0.00622200   -1.62625396
 C         -4.81345415    2.44672203   -0.66303802
 C         -1.91519904    1.04189599    1.15297401
 H         -3.93612289    1.70031297    1.62354100
 H         -1.89238906    0.58267599    2.14293790
 O         -1.25063396    2.28418899    1.26046503
 H         -1.33373904    2.73317695    0.40704700
 C          2.46323109   -0.46040499    0.74813998
 C          2.46852398    1.05306005    0.48463300
 C          3.68980908    1.42533004   -0.37452999
 H          1.54962504    1.34200096   -0.02790900
 H          2.49834609    1.58977902    1.43631005
 C          4.97493315    1.03734803    0.37059101
 C          4.97550297   -0.47530699    0.63522202
 H          5.85124779    1.31172097   -0.22455400
 H          5.03956604    1.58340001    1.31682205
 C          3.75295401   -0.84734702    1.49260199
 H          3.75404000   -1.92139697    1.69889104
 H          3.79664493   -0.32685500    2.45325804
 C          2.41003299   -1.21539605   -0.58868098
 S          1.04663098   -0.94319302    1.83793104
 C          3.62383389    0.67156100   -1.71112895
 H          3.67946911    2.50351906   -0.55768198
 C          3.62991405   -0.84142798   -1.44815004
 H          2.71707296    0.95370603   -2.25514102
 H          4.47794294    0.94611400   -2.33774900
 H          3.57579803   -1.38268495   -2.39688396
 C          4.91391897   -1.22957695   -0.70062602
 H          2.39613509   -2.29179311   -0.39986899
 H          1.48953700   -0.96355700   -1.11868703
 H          4.93171883   -2.30933309   -0.52297598
 H          5.88359213   -0.75597101    1.17604601
 H          5.79079723   -0.98488402   -1.30772102
 H         -0.05769600   -0.38668901    0.97447503
 H         -5.23902416    2.98637390    0.18833099
 H         -5.46038485    1.60554898   -0.91988599
 H         -4.72985077    3.11616707   -1.51639402
