53
energy: -1512.628896669229
 C         -4.91159821   -1.58071101   -0.08224200
 C         -3.81297493   -0.53648502   -0.17709200
 H         -4.61649323   -2.36481094    0.62004697
 O         -5.10338593   -2.12471890   -1.39833295
 H         -5.83098507   -1.11006105    0.27596900
 O         -3.70375299    0.04278800    1.12477803
 C         -2.45373797   -1.13849294   -0.57971001
 H         -4.09477377    0.22440299   -0.91114700
 C         -1.38958395   -0.07085100   -0.49408200
 O         -2.46035194   -1.62094605   -1.91864800
 H         -2.21406507   -1.94044101    0.12881801
 C         -2.79344606    1.12769997    1.20546401
 H         -5.56019783   -2.97151995   -1.32001698
 O         -1.30719304    0.73976898   -1.59292805
 O         -3.14447689    2.19368100    0.37411800
 H         -3.33695292   -2.02194095   -2.06715894
 H         -1.62919796    0.21868400   -2.35126901
 C         -4.31143093    2.90217304    0.80211502
 C         -1.36849904    0.67202598    0.81980801
 H         -2.81575608    1.43254006    2.25589299
 H         -1.04871798   -0.02378600    1.59687102
 O         -0.46669501    1.75891399    0.83914202
 H         -0.79552400    2.42081499    0.21416999
 C          2.37806201   -0.88534498   -0.15210401
 C          2.36493993   -0.47482401    1.32806301
 C          3.60946107    0.37323299    1.64346504
 H          1.46030104    0.09551600    1.54514802
 H          2.35079002   -1.37012899    1.95500696
 C          4.87271690   -0.45205599    1.36017799
 C          4.89440918   -0.86193001   -0.11937300
 H          5.76596212    0.13314800    1.59973598
 H          4.88813114   -1.34299695    1.99583995
 C          3.64854503   -1.70755005   -0.43566701
 H          3.66144991   -2.01557899   -1.48460805
 H          3.64696288   -2.61502910    0.17490301
 C          2.38538098    0.37293199   -1.03301501
 S          0.93889999   -1.97474694   -0.55788600
 C          3.60945010    1.63091505    0.76257402
 H          3.58560610    0.66072202    2.69855189
 C          3.63083792    1.21956301   -0.71697998
 H          2.72243190    2.23586512    0.97183597
 H          4.48454714    2.24685502    0.99199200
 H          3.62224889    2.11257100   -1.34851003
 C          4.89442110    0.39496401   -1.00164497
 H          2.38517594    0.08138200   -2.08655095
 H          1.48128700    0.95570499   -0.85029298
 H          4.92482281    0.11011800   -2.05795598
 H          5.78735495   -1.45869505   -0.32555601
 H          5.78800011    0.99396098   -0.80051303
 H         -0.16314299   -0.93445599   -0.49092099
 H         -4.42624521    3.74967694    0.12989600
 H         -4.18571615    3.26024008    1.82826996
 H         -5.19788885    2.26736689    0.74486601
