26
wb97x-d4 ma-def2-tzvp(-f) cpcm(dmso) E: -726.364932037347, G: -726.18862152
 C         -1.14344501    0.11227700   -0.03992000
 C         -0.94645000   -1.39844894    0.07302500
 O         -0.24163200    0.80778700    0.82690698
 C         -2.53572011    0.54482102    0.37321001
 H         -0.96073103    0.41139901   -1.07695103
 C          1.12406898    0.61837697    0.51768702
 C          1.49601400   -0.85148698    0.70920599
 H          1.66841102    1.25590706    1.22234905
 O          1.43826497    0.96434301   -0.79869503
 C          0.50819701   -1.72482300    0.00477700
 H          1.48198903   -1.05684602    1.78860700
 O          2.82803702   -1.13179696    0.29292801
 O          0.78178197   -3.06242299   -0.02471200
 O         -1.68741202   -1.99655604   -0.99213499
 H         -1.35866594   -1.74472499    1.03648305
 H         -3.27501202    0.01167900   -0.22547300
 O         -2.74184489    1.93533397    0.14809200
 H         -2.69234800    0.29533601    1.43004799
 H         -2.06836390    2.41189694    0.64882100
 H         -1.65663695   -2.95333600   -0.87542200
 H          1.74312794   -3.17496109    0.02415200
 C          1.34285498    2.36502004   -1.05523396
 H          0.30573401    2.70490408   -0.98419100
 H          1.71015501    2.52552605   -2.06826806
 H          1.96030903    2.92618394   -0.34549400
 H          2.91931510   -0.79538798   -0.60979301
