26
wb97x-d4 ma-def2-tzvp(-f) cpcm(dmso) E: -726.364900761798, G: -726.18856583
 C         -1.12377203    0.27254400   -0.14490800
 C         -1.01204395   -1.25197601   -0.16523100
 O         -0.22349100    0.83563697    0.81507301
 C         -2.50972390    0.76405102    0.23160399
 H         -0.88514000    0.64800400   -1.14569199
 C          1.14207006    0.57844698    0.55910701
 C          1.41308296   -0.92371601    0.63061798
 H          1.68640900    1.11253595    1.34488297
 O          1.55106795    1.01875198   -0.70312703
 C          0.42375001   -1.65575898   -0.21868800
 H          1.31178403   -1.22860503    1.68127406
 O          2.75099802   -1.25081098    0.27126199
 O          0.62651902   -2.99711704   -0.38036200
 O         -1.74800599   -1.70294094   -1.30382299
 H         -1.47521901   -1.65638804    0.74860102
 H         -2.52459908    1.85722303    0.15752301
 O         -2.91035104    0.34420699    1.53186595
 H         -3.23786998    0.35744700   -0.47107601
 H         -2.27291703    0.70188600    2.16188502
 H         -1.78498900   -2.66579604   -1.26979303
 H          1.57702398   -3.16789699   -0.29724699
 C          1.56694901    2.44045210   -0.82939100
 H          1.98684704    2.66539907   -1.80911899
 H          2.19253111    2.88647008   -0.04871000
 H          0.55479503    2.84900093   -0.76313800
 H          2.92429495   -0.83104700   -0.58339000
