26
wb97x-d4 ma-def2-tzvp(-f) cpcm(dmso) E: -726.362207043793, G: -726.18590319
 C         -1.45006704    0.17616200   -0.17993400
 C         -0.86153299   -1.14834094   -0.67208898
 O         -0.47802699    1.12496805    0.32159600
 C         -2.45425797   -0.05959700    0.94069898
 H         -1.95058799    0.66691297   -1.01854205
 C          0.86790299    0.74257201    0.39850101
 C          1.03855598   -0.64460498    1.02054906
 H          1.35414100    1.50589502    1.01364994
 O          1.48841500    0.69683599   -0.86866802
 C          0.18938300   -1.60497797    0.26176801
 H          0.73922199   -0.58196700    2.07454395
 O          2.40965295   -1.03943801    1.05025196
 O          0.45074901   -2.93718290    0.32658300
 O         -0.40577501   -1.06202805   -2.04067707
 H         -1.67436802   -1.87977397   -0.70363498
 H         -3.28750610   -0.65444499    0.56060302
 O         -3.00295901    1.16296995    1.41826999
 H         -1.97478104   -0.61193299    1.75870800
 H         -2.26166511    1.71281302    1.70197797
 H          0.37658101   -0.48917499   -2.01885796
 H          1.28621602   -3.06375909    0.80181098
 C          1.66949606    1.98719800   -1.45757604
 H          2.25591898    2.62718391   -0.79083699
 H          0.70469201    2.45711708   -1.66455102
 H          2.21077704    1.83415496   -2.39038110
 H          2.75982499   -0.91755903    0.15623599
