26
wb97x-d4 ma-def2-tzvp(-f) cpcm(dmso) E: -726.363610410489, G: -726.18563306
 C         -1.01879799    0.27517900    0.05505500
 C         -0.88175303   -1.24032199    0.20532900
 O         -0.09496200    0.91919202    0.93180501
 C         -2.40324092    0.78032303    0.44109601
 H         -0.81164801    0.55387402   -0.98439300
 C          1.25979495    0.66181898    0.61610901
 C          1.59055698   -0.82734501    0.77524197
 H          1.83649397    1.26016498    1.32904696
 O          1.58228397    1.02260602   -0.69548398
 C          0.54948699   -1.65793598    0.09419800
 H          1.59161496   -1.05054498    1.85071397
 O          2.91037989   -1.10634005    0.33011901
 O          0.79622400   -2.99967694    0.10681000
 O         -1.70464003   -1.95085502   -0.72972602
 H         -1.27623796   -1.53047705    1.19067705
 H         -2.64451289    0.44240001    1.45690501
 O         -3.40061688    0.36379799   -0.48536900
 H         -2.39451909    1.87206900    0.43367600
 H         -3.29139400   -0.58849901   -0.61772901
 H         -1.37299299   -1.76665497   -1.62052095
 H          0.00792300   -3.45517898   -0.22550701
 C          1.54949403    2.43200397   -0.91895598
 H          2.19287300    2.94760489   -0.19784001
 H          0.52920401    2.81684494   -0.83685398
 H          1.92204201    2.60055208   -1.92872906
 H          2.97694707   -0.77460301   -0.57567102
