26
wb97x-d4 ma-def2-tzvp(-f) cpcm(dmso) E: -726.36344337101, G: -726.18515273
 C         -0.99678898    0.10261100    0.10910800
 C         -0.80861598   -1.38724899    0.45849201
 O         -0.09927200    0.88355798    0.89704400
 C         -2.39352012    0.61254501    0.43651700
 H         -0.79222500    0.24670300   -0.95862401
 C          1.27233899    0.62507200    0.65708399
 C          1.60017097   -0.85053903    0.96513700
 H          1.80772996    1.29184198    1.34215903
 O          1.64130294    0.87781799   -0.66529000
 C          0.63164598   -1.74524403    0.25159401
 H          1.45784700   -0.97421598    2.04205108
 O          2.95649600   -1.13884604    0.68744498
 O          0.98552698   -2.09173107   -1.02241802
 O         -1.59849703   -2.22916389   -0.37202999
 H         -1.06974995   -1.51575696    1.51768804
 H         -2.62065411    0.41868001    1.48762500
 O         -3.38315392   -0.07827700   -0.33358899
 H         -2.44493794    1.69053495    0.26002499
 H         -3.40352201    0.30667800   -1.21823299
 H         -2.44649696   -1.77517498   -0.50864202
 H          0.18292899   -2.42704797   -1.45467901
 C          1.60521197    2.26224899   -1.00872302
 H          0.58058399    2.64422488   -0.98729402
 H          2.00446391    2.34770489   -2.01888204
 H          2.22495103    2.84383297   -0.31737101
 H          3.10623598   -0.94080597   -0.24619401
