26
wb97x-d4 ma-def2-tzvp(-f) cpcm(dmso) E: -726.362433374946, G: -726.18507897
 C         -1.14961302    0.14951900   -0.11688500
 C         -1.01410902   -1.36955702    0.11647600
 O         -0.25186101    0.85115802    0.75389898
 C         -2.53720188    0.68171901    0.18915799
 H         -0.91108602    0.37236500   -1.16351998
 C          1.12055397    0.57014298    0.55128199
 C          1.36845303   -0.92302299    0.82297897
 H          1.64854801    1.19133198    1.28378403
 O          1.54143798    0.87153703   -0.74381900
 C          0.43054900   -1.74720204   -0.01078300
 H          1.14028001   -1.07894301    1.88208699
 O          2.72804999   -1.22221994    0.53716999
 O          0.82576197   -2.01163507   -1.29392898
 O         -1.85824299   -2.09683108   -0.76204902
 H         -1.34955895   -1.58075404    1.13478696
 H         -2.56362009    1.75279200   -0.04229800
 O         -2.92684793    0.45229399    1.54023504
 H         -3.26456809    0.17111801   -0.44287500
 H         -2.28843093    0.90331501    2.10607004
 H         -1.44054401   -2.10803604   -1.63293397
 H          1.79223096   -1.93063903   -1.32412505
 C          1.50131202    2.26789403   -1.03388405
 H          0.47162399    2.63569593   -1.05790102
 H          1.95707500    2.39935994   -2.01474190
 H          2.07038093    2.83113694   -0.28594601
 H          2.95942807   -2.03254008    1.00776303
