26
wb97x-d4 ma-def2-tzvp(-f) cpcm(dmso) E: -726.362462950053, G: -726.18504031
 C         -1.16021895    0.01619600    0.07360200
 C         -0.92999297   -1.46483505    0.43541399
 O         -0.22200499    0.83025700    0.79032201
 C         -2.53357911    0.50793701    0.47986001
 H         -1.02058303    0.15030999   -1.00500000
 C          1.13533294    0.60203898    0.45919400
 C          1.49388897   -0.84867698    0.82341599
 H          1.70069206    1.30797100    1.07834899
 O          1.39968395    0.81190997   -0.89310801
 C          0.51200598   -1.78939402    0.18640000
 H          1.40150499   -0.91574800    1.91224003
 O          2.82448196   -1.11173701    0.39954901
 O          0.77482998   -2.16706491   -1.10177004
 O         -1.81882703   -2.31407309   -0.27123800
 H         -1.14675999   -1.58658397    1.50138497
 H         -3.29604292   -0.09137500   -0.01841400
 O         -2.74751496    1.86146700    0.08924100
 H         -2.65066004    0.39573699    1.56511700
 H         -2.04425502    2.38929510    0.48717001
 H         -1.48476505   -2.40886998   -1.17269003
 H          1.72649705   -2.05287194   -1.25270200
 C          1.25453305    2.17638612   -1.28422701
 H          1.60064995    2.24735999   -2.31494498
 H          1.86519098    2.82487798   -0.64588898
 H          0.20906600    2.49287391   -1.22691703
 H          3.15684700   -1.86338794    0.90564102
