26
wb97x-d4 ma-def2-tzvp(-f) cpcm(dmso) E: -726.362141064793, G: -726.18483255
 C         -1.05725098    0.03781100    0.05719900
 C         -0.82415903   -1.43462706    0.43504101
 O         -0.19664100    0.86110002    0.84881097
 C         -2.48215008    0.48115101    0.33068201
 H         -0.82768101    0.16899700   -1.00712001
 C          1.18555903    0.65261602    0.64299703
 C          1.56061804   -0.79754400    1.00602603
 H          1.68186700    1.36017597    1.31702101
 O          1.57674003    0.88182700   -0.67961699
 C          0.64236802   -1.74554706    0.29376501
 H          1.39183402   -0.89337498    2.08190203
 O          2.93355489   -1.04776394    0.77430099
 O          1.05032504   -2.11395407   -0.95792300
 O         -1.59283900   -2.24333596   -0.45189801
 H         -1.13759398   -1.57647002    1.47543502
 H         -3.16969299   -0.23986600   -0.12026100
 O         -2.74649906    1.80003297   -0.14182000
 H         -2.65197802    0.49764600    1.41013002
 H         -2.75707412    1.77488005   -1.10585499
 H         -1.73892498   -3.10045695   -0.03318700
 H          0.27289000   -2.48566890   -1.40689194
 C          1.46246397    2.24988294   -1.06928003
 H          2.00892496    2.89339805   -0.37091401
 H          0.41438499    2.56030703   -1.10371006
 H          1.90002298    2.33410001   -2.06345701
 H          3.10093188   -0.87531900   -0.16137700
