26
wb97x-d4 ma-def2-tzvp(-f) cpcm(dmso) E: -726.365347206738, G: -726.1880126799999
 C         -1.08982003    0.04314700   -0.04140300
 C         -0.83432400   -1.44776106    0.17130400
 O         -0.25380901    0.81045002    0.83052498
 C         -2.51729798    0.43653399    0.27973399
 H         -0.86893898    0.30030900   -1.08332705
 C          1.12836003    0.65896702    0.57836300
 C          1.57111299   -0.78562498    0.83801901
 H          1.62352204    1.34384799    1.27471006
 O          1.47372198    0.97273397   -0.74001300
 C          0.63495702   -1.73386300    0.15927500
 H          1.53933203   -0.94834203    1.92393601
 O          2.92936993   -0.97645700    0.46774501
 O          0.99807203   -3.04693890    0.23859499
 O         -1.52059102   -2.25282001   -0.78906602
 H         -1.26140201   -1.74861300    1.13986301
 H         -3.20160890   -0.15994000   -0.32491601
 O         -2.76849890    1.80297601   -0.03134300
 H         -2.71846700    0.23605201    1.33937204
 H         -2.14850903    2.33422208    0.48321700
 H         -1.17183495   -2.03462791   -1.66464603
 H          0.27217299   -3.57906389   -0.12121200
 C          1.31791198    2.35710311   -1.05025804
 H          1.86890996    2.97331095   -0.33152899
 H          0.26245299    2.64371109   -1.04094303
 H          1.72610402    2.50503993   -2.04939699
 H          3.00909996   -0.70435297   -0.45660499
