26
wb97x-d4 ma-def2-tzvp(-f) cpcm(dmso) E: -726.361543066721, G: -726.18471447
 C         -1.21496296    0.41117400   -0.18842900
 C         -0.78963298   -0.99224102   -0.67184502
 O         -0.30165800    1.01667094    0.74716502
 C         -2.55987096    0.38538900    0.51599097
 H         -1.29717505    1.05970895   -1.06724405
 C          1.04546297    0.64081597    0.61470199
 C          1.21557605   -0.83495498    0.98172802
 H          1.60286200    1.28205395    1.30414200
 O          1.52693105    0.81300902   -0.69629902
 C          0.17623000   -1.61408305    0.26473701
 H          1.08687496   -0.92692602    2.06652498
 O          2.55587006   -1.27674401    0.73866701
 O          0.17820600   -2.95594501    0.49444199
 O         -0.30413401   -0.95597601   -2.03424907
 H         -1.68803406   -1.61283100   -0.72943300
 H         -2.80586195    1.39886498    0.85274398
 O         -2.58033490   -0.52945602    1.60649204
 H         -3.32760096    0.05701000   -0.18760900
 H         -1.90474296   -0.24524599    2.23458099
 H          0.48934001   -0.40025899   -2.01375794
 H         -0.54952103   -3.37326097    0.01428600
 C          1.64647400    2.18416190   -1.08201897
 H          2.29133511    2.71918702   -0.37764600
 H          0.66594702    2.66585803   -1.11968899
 H          2.09696198    2.19375491   -2.07371902
 H          2.74545789   -1.10973895   -0.19426399
