26
wb97x-d4 ma-def2-tzvp(-f) cpcm(dmso) E: -726.362479770492, G: -726.18434392
 C         -1.02550197    0.22472000    0.03341700
 C         -0.89579201   -1.27472401    0.34985501
 O         -0.12514000    0.94115800    0.87946397
 C         -2.41656804    0.77486098    0.32099199
 H         -0.77758098    0.39535400   -1.02032399
 C          1.24431098    0.63992000    0.68123400
 C          1.50989294   -0.85563803    0.95309502
 H          1.77653098    1.26481998    1.40700400
 O          1.67329299    0.91887999   -0.61752898
 C          0.53589797   -1.68772602    0.17293900
 H          1.32073498   -1.00903404    2.01887298
 O          2.86465597   -1.18440604    0.71805799
 O          0.92336297   -1.99544799   -1.10066998
 O         -1.75520098   -1.98791397   -0.54226297
 H         -1.20075703   -1.42368805    1.39166403
 H         -2.71686006    0.49550799    1.33938801
 O         -3.37361598    0.32829699   -0.63315701
 H         -2.38534188    1.86465800    0.25894299
 H         -3.26370597   -0.62989002   -0.71492898
 H         -1.93042099   -2.86117911   -0.16895200
 H          0.13408600   -2.29390693   -1.58028805
 C          1.69558001    2.31301594   -0.92044997
 H          2.30409408    2.85378695   -0.18728900
 H          0.68369102    2.72784209   -0.92944503
 H          2.13917494    2.41376591   -1.91046298
 H          3.06117702   -0.95303202   -0.19916600
