26
wb97x-d4 ma-def2-tzvp(-f) cpcm(dmso) E: -726.360517774332, G: -726.1842109199999
 C         -1.41005194    0.21875399   -0.02266500
 C         -0.88681698   -1.11040401   -0.57589102
 O         -0.38094899    1.15076399    0.37708700
 C         -2.32602191   -0.02424800    1.17230201
 H         -1.97949803    0.71435201   -0.81512398
 C          0.95568901    0.73731899    0.36127400
 C          1.14152002   -0.65325600    0.97183400
 H          1.50174499    1.48959100    0.93885499
 O          1.49402595    0.67582601   -0.94471699
 C          0.21706000   -1.59638596    0.27933800
 H          0.92332000   -0.58433402    2.04502511
 O          2.50141001   -1.07914305    0.89676100
 O          0.48659500   -2.92845392    0.28306201
 O         -0.52541202   -1.01186299   -1.97193801
 H         -1.71279895   -1.82657695   -0.56265199
 H         -3.10304594   -0.74054599    0.88162702
 O         -2.91072512    1.17559195    1.66719103
 H         -1.75258899   -0.45095199    1.99863899
 H         -3.52385402    1.50728595    1.00031602
 H          0.27078700   -0.45785001   -1.99701202
 H          1.35912097   -3.06126809    0.68490702
 C          1.67698395    1.96144605   -1.54240704
 H          2.15617800    1.79552102   -2.50661302
 H          2.32135606    2.58224106   -0.91186500
 H          0.71569097    2.46022201   -1.69011199
 H          2.79028106   -0.94363397   -0.01722500
