26
wb97x-d4 ma-def2-tzvp(-f) cpcm(dmso) E: -726.360876396144, G: -726.18418417
 C         -1.07494295   -0.09603200   -0.01468800
 C         -0.90081197   -1.50965095    0.56308198
 O         -0.17715500    0.80153799    0.63852698
 C         -2.47441006    0.43952301    0.20148700
 H         -0.85753697   -0.12125900   -1.08796203
 C          1.18311799    0.59222102    0.31525400
 C          1.53626096   -0.89977598    0.11919300
 H          1.73918104    0.98905802    1.17040300
 O          1.55185401    1.27033997   -0.85353100
 C          0.54641098   -1.71628201    0.86025703
 H          2.54398489   -1.06815803    0.51106697
 O          1.49514604   -1.28673100   -1.26843202
 O          0.98168403   -2.92851210    1.30158997
 O         -1.42926502   -2.49372911   -0.34167600
 H         -1.49979699   -1.62162602    1.47442806
 H         -3.19705200   -0.26581499   -0.21240599
 O         -2.67701793    1.68312395   -0.46073499
 H         -2.65788293    0.53849900    1.27866197
 H         -2.02187204    2.30226707   -0.11523100
 H         -0.87770200   -2.47584701   -1.13589704
 H          0.22655500   -3.45701790    1.59568596
 C          1.55519605    2.69110107   -0.70826501
 H          1.92300403    3.10404205   -1.64667201
 H          2.22037101    2.98730612    0.10999700
 H          0.54674298    3.06407499   -0.51308501
 H          1.79593897   -0.52265799   -1.78105104
