26
wb97x-d4 ma-def2-tzvp(-f) cpcm(dmso) E: -726.360425920032, G: -726.1841197699999
 C         -1.05303097    0.00662800   -0.22711200
 C         -0.98450297   -1.44981003    0.25960401
 O         -0.20068100    0.81748497    0.58324599
 C         -2.44781709    0.59634799   -0.14145599
 H         -0.72709697    0.04456700   -1.27276599
 C          1.18046200    0.57262999    0.40554401
 C          1.50602496   -0.91177100    0.12657700
 H          1.64271498    0.87705100    1.34972596
 O          1.71101904    1.32276499   -0.65128601
 C          0.41470799   -1.74349296    0.68343103
 H          2.45884991   -1.14930701    0.60921800
 O          1.60697103   -1.18548095   -1.28568196
 O          0.75801700   -3.00814199    1.05333400
 O         -1.45448399   -2.34494901   -0.76327801
 H         -1.67734301   -1.59482300    1.09423900
 H         -2.43776488    1.60061705   -0.57866102
 O         -2.94361711    0.63650203    1.19313598
 H         -3.13367605   -0.02731000   -0.71748799
 H         -2.34627008    1.19317901    1.70724797
 H         -0.82818902   -2.29627395   -1.49834001
 H         -0.04119800   -3.53309393    1.20013201
 C          1.73525298    2.72780299   -0.39864001
 H          2.23867893    3.19191909   -1.24554801
 H          2.29112792    2.93909788    0.52107102
 H          0.72114497    3.12456703   -0.31185800
 H          2.01069903   -0.40670401   -1.69438899
