26
wb97x-d4 ma-def2-tzvp(-f) cpcm(dmso) E: -726.360950503243, G: -726.18398172
 C         -1.11884201   -0.00049200    0.08044800
 C         -0.92533499   -1.46476495    0.52711397
 O         -0.20679399    0.82450801    0.81835097
 C         -2.51357388    0.50239700    0.36608601
 H         -0.91130298    0.08167600   -0.99254400
 C          1.15585697    0.57387602    0.57789898
 C          1.51455998   -0.88574302    0.92222399
 H          1.69364405    1.26879895    1.23264503
 O          1.52381599    0.78333002   -0.75756401
 C          0.51243401   -1.82771206    0.31420201
 H          1.46831095   -0.97180098    2.01154995
 O          2.83546400   -1.19343102    0.50073498
 O          0.76925498   -2.27729392   -0.95275599
 O         -1.81517196   -2.34385395   -0.14008300
 H         -1.15696001   -1.51737201    1.59588099
 H         -3.23227310   -0.21478000   -0.04071400
 O         -2.67655706    1.78234994   -0.24573199
 H         -2.65697098    0.57076901    1.45124495
 H         -3.57010102    2.09019089   -0.05651200
 H         -1.44185197   -2.54003501   -1.00922704
 H          1.73091698   -2.30855799   -1.06921005
 C          1.49484801    2.15811300   -1.14315796
 H          0.47058800    2.54029703   -1.14136696
 H          1.90417802    2.21200299   -2.15121698
 H          2.10950089    2.75710607   -0.46257201
 H          3.04236293   -0.59958100   -0.23572600
