26
wb97x-d4 ma-def2-tzvp(-f) cpcm(dmso) E: -726.360009288448, G: -726.18390503
 C         -1.41049802    0.23542400   -0.15084900
 C         -0.85325700   -1.08376503   -0.69603598
 O         -0.40372401    1.16625905    0.30659500
 C         -2.37840700   -0.02427900    0.99143100
 H         -1.94491303    0.74023598   -0.96016401
 C          0.93002701    0.74854702    0.37658399
 C          1.07300103   -0.64967501    0.98167098
 H          1.43822300    1.49272799    0.99769700
 O          1.55302095    0.70144802   -0.89217597
 C          0.20308000   -1.58222306    0.20977300
 H          0.77670598   -0.59502602    2.03695202
 O          2.43487811   -1.07405996    1.00150704
 O          0.46892300   -2.91498804    0.21487901
 O         -0.41375801   -0.95627803   -2.06667709
 H         -1.67605400   -1.80205703   -0.74197900
 H         -3.13761401   -0.73847097    0.65236402
 O         -2.98728108    1.21100497    1.36089504
 H         -1.84210002   -0.45994300    1.84257197
 H         -3.57843089    1.03819096    2.10203600
 H          0.38456801   -0.40570900   -2.03422904
 H          1.31334603   -3.05486608    0.67066997
 C          1.76798701    1.99396300   -1.46402800
 H          0.81577599    2.48958397   -1.66985404
 H          2.31052995    1.84005404   -2.39609790
 H          2.36595297    2.61174893   -0.78647202
 H          2.79001498   -0.92784899    0.11293600
