26
wb97x-d4 ma-def2-tzvp(-f) cpcm(dmso) E: -726.365377451123, G: -726.1879258299999
 C         -1.07557404    0.19929101   -0.15550800
 C         -0.90812701   -1.31822300   -0.07589300
 O         -0.23803701    0.83794898    0.81322801
 C         -2.49293089    0.66001302    0.13149001
 H         -0.80273300    0.53331399   -1.16351902
 C          1.14345896    0.61261302    0.61974198
 C          1.48346806   -0.87308002    0.77844501
 H          1.64171898    1.20580804    1.39364898
 O          1.57821596    1.00614703   -0.65032899
 C          0.53955102   -1.69312203   -0.04019700
 H          1.37171304   -1.12488997    1.84182298
 O          2.84982610   -1.11812997    0.47431600
 O          0.82058197   -3.02865601   -0.07118600
 O         -1.58144498   -1.98131597   -1.14887905
 H         -1.40676796   -1.68212402    0.83275902
 H         -2.54469204    1.74511397   -0.01214700
 O         -2.93253994    0.30619401    1.43870199
 H         -3.17531300    0.18292600   -0.57341301
 H         -2.33352399    0.72472602    2.06905794
 H         -1.17028904   -1.69760799   -1.97729003
 H          0.08625100   -3.47546005   -0.51906800
 C          1.53708303    2.41839004   -0.85104001
 H          0.50629801    2.78370309   -0.84891099
 H          1.98950803    2.61245608   -1.82291198
 H          2.10754490    2.93212008   -0.06969200
 H          3.00675392   -0.76815403   -0.41323000
