26
wb97x-d4 ma-def2-tzvp(-f) cpcm(dmso) E: -726.361047776124, G: -726.1837078899999
 C         -1.12788701    0.05113300    0.12132700
 C         -0.89947999   -1.43050206    0.49539700
 O         -0.19138999    0.86773801    0.83279699
 C         -2.51601291    0.52349597    0.50540298
 H         -0.98157799    0.16886701   -0.95954299
 C          1.16591096    0.63197798    0.51393598
 C          1.52217805   -0.81404799    0.89739001
 H          1.72917902    1.34402597    1.12820005
 O          1.44152498    0.82629400   -0.83972400
 C          0.54411298   -1.75924003    0.26323199
 H          1.42142797   -0.86875999    1.98616302
 O          2.85585403   -1.08364201    0.48697701
 O          0.81634402   -2.15042901   -1.01938498
 O         -1.77771199   -2.28740811   -0.21558701
 H         -1.12766695   -1.54440105    1.56005597
 H         -3.25060296   -0.18897800    0.11919700
 O         -2.79769707    1.84329498    0.04456900
 H         -2.59750509    0.55250502    1.59490705
 H         -2.87649202    1.81467199   -0.91619599
 H         -1.42003906   -2.40515304   -1.10521305
 H          1.76909697   -2.03842402   -1.16461802
 C          1.30044603    2.18653989   -1.24609697
 H          1.90891504    2.84103489   -0.61169702
 H          0.25537801    2.50553203   -1.19702601
 H          1.65194595    2.24643302   -2.27572608
 H          3.18175006   -1.83255899    1.00125897
