26
wb97x-d4 ma-def2-tzvp(-f) cpcm(dmso) E: -726.359108347066, G: -726.18356191
 C         -0.97286099   -0.04618100   -0.37446699
 C         -0.93018299   -1.45365596    0.23078001
 O         -0.22454201    0.82635802    0.47383100
 C         -2.37440705    0.52531600   -0.47487700
 H         -0.53707802   -0.07813700   -1.37843704
 C          1.17314506    0.61050397    0.47443199
 C          1.57866001   -0.85312003    0.19844300
 H          1.50186396    0.89426702    1.47946894
 O          1.81993604    1.40805399   -0.47894800
 C          0.47832999   -1.75086904    0.61746198
 H          2.47983408   -1.06441295    0.78362501
 O          1.86397302   -1.08102202   -1.19555199
 O          0.82918000   -3.02959800    0.92325503
 O         -1.39011896   -2.43642306   -0.71151799
 H         -1.57950199   -1.48660505    1.11449897
 H         -2.32143688    1.50752103   -0.95700997
 O         -3.01927495    0.62221199    0.79169101
 H         -2.98844409   -0.13032299   -1.09523904
 H         -2.48029089    1.19920897    1.34650898
 H         -2.33257294   -2.57654405   -0.56506300
 H          0.04674400   -3.59554791    0.85215002
 C          1.76592398    2.80365396   -0.18352100
 H          2.19090009    3.00009799    0.80673301
 H          0.73671699    3.16827798   -0.21878900
 H          2.35945702    3.31065297   -0.94318497
 H          2.32605195   -0.29368401   -1.51627004
