26
wb97x-d4 ma-def2-tzvp(-f) cpcm(dmso) E: -726.360344126193, G: -726.18351749
 C         -1.13643396   -0.07663600   -0.01764900
 C         -1.00189602   -1.49876702    0.55562800
 O         -0.21929701    0.80308098    0.63515502
 C         -2.52303910    0.49158001    0.19305800
 H         -0.91649997   -0.10479700   -1.09026599
 C          1.13568902    0.55193400    0.32458600
 C          1.45023596   -0.95513701    0.17211799
 H          1.69785404    0.95771599    1.17128396
 O          1.52757800    1.18511605   -0.86133897
 C          0.42406601   -1.72030604    0.92391503
 H          2.45227194   -1.13450801    0.57744199
 O          1.41123796   -1.37991297   -1.20389295
 O          0.71537799   -2.93566108    1.46233106
 O         -1.49489498   -2.45844698   -0.39502400
 H         -1.64439797   -1.61804402    1.43432796
 H         -3.26005793   -0.19898801   -0.22039799
 O         -2.69786811    1.73715603   -0.47396401
 H         -2.70758295    0.59790301    1.26924300
 H         -2.02968502    2.34369802   -0.13153601
 H         -0.89059502   -2.44182491   -1.14980304
 H          1.67255294   -3.02459693    1.56612599
 C          1.56212401    2.60940504   -0.76128602
 H          0.56207401    3.01020908   -0.57912803
 H          1.93895102    2.98343301   -1.71220005
 H          2.23342395    2.91705990    0.04752600
 H          1.73880899   -0.64066100   -1.73625505
