26
wb97x-d4 ma-def2-tzvp(-f) cpcm(dmso) E: -726.360668401932, G: -726.1833238099999
 C         -1.28782701    0.41435301   -0.08398100
 C         -0.84675598   -0.95326501   -0.61664402
 O         -0.24851701    1.19026899    0.54889798
 C         -2.38192391    0.27165300    0.96517497
 H         -1.67163098    0.99857002   -0.92570001
 C          1.06877196    0.71827197    0.48949999
 C          1.16976404   -0.71785498    1.00526094
 H          1.64815903    1.39944696    1.12021899
 O          1.59590900    0.72635800   -0.81857097
 C          0.16480500   -1.54651296    0.28457001
 H          0.97734201   -0.70099598    2.08520293
 O          2.49707890   -1.23302805    0.87940401
 O          0.26697099   -2.90237188    0.31442699
 O         -0.40711701   -0.88678998   -1.99215305
 H         -1.73405802   -1.58920801   -0.64834899
 H         -2.05140305   -0.42295799    1.74736798
 O         -3.55589199   -0.20908500    0.31595200
 H         -2.55912900    1.25204802    1.41911697
 H         -4.23393488   -0.34774601    0.98612702
 H          0.41345501   -0.37026900   -1.97881806
 H          1.10074496   -3.14012003    0.74732000
 C          1.78517306    2.04248095   -1.34416103
 H          2.42888999    2.62583590   -0.67818803
 H          0.82590699    2.55164909   -1.46793497
 H          2.26713204    1.92744100   -2.31428504
 H          2.76808596   -1.09817302   -0.03975700
