26
wb97x-d4 ma-def2-tzvp(-f) cpcm(dmso) E: -726.358931727264, G: -726.1831061
 C         -1.33959496    0.53316301   -0.08086300
 C         -0.99862802   -0.80644703   -0.75300801
 O         -0.23770300    1.17804503    0.59272498
 C         -2.46902490    0.40564600    0.93338698
 H         -1.68475902    1.21063805   -0.86936200
 C          1.05031705    0.65039700    0.41269001
 C          1.06763005   -0.82825899    0.81015301
 H          1.69542396    1.23756397    1.07489598
 O          1.50717604    0.76720399   -0.91296399
 C          0.02429000   -1.53455806    0.02365500
 H          0.84525800   -0.86887699    1.88618803
 O          2.33079600   -1.45381403    0.57833999
 O          0.10623900   -2.88230109   -0.13365500
 O         -0.61992198   -0.63083398   -2.13956499
 H         -1.91793299   -1.39731896   -0.80712998
 H         -2.64538097    1.38684797    1.37899494
 O         -2.17955208   -0.47710299    2.01330304
 H         -3.38005304    0.09708800    0.40802699
 H         -2.24985909   -1.38566196    1.69921196
 H          0.22860301   -0.16091201   -2.11484289
 H          0.97057098   -3.16691589    0.20219500
 C          1.71476197    2.12323594   -1.31257200
 H          2.40759706    2.61897802   -0.62443101
 H          0.77025801    2.67306995   -1.33880603
 H          2.14905500    2.09401703   -2.31138897
 H          2.85443401   -1.38289297    1.38481903
