26
wb97x-d4 ma-def2-tzvp(-f) cpcm(dmso) E: -726.359741143765, G: -726.18310462
 C         -1.10010505    0.01754600   -0.26540601
 C         -1.08480000   -1.44004703    0.22681400
 O         -0.25767699    0.81445497    0.56946898
 C         -2.48300409    0.63989300   -0.23464100
 H         -0.73564303    0.04311200   -1.29851604
 C          1.12060702    0.53478801    0.43664601
 C          1.41834795   -0.96261299    0.18632600
 H          1.56301999    0.83949399    1.39021206
 O          1.70278800    1.25586200   -0.61368603
 C          0.28426400   -1.75795901    0.71719998
 H          2.35049701   -1.21033800    0.70687097
 O          1.56627703   -1.25741196   -1.21620202
 O          0.47257900   -3.02565598    1.17693806
 O         -1.52851200   -2.31491899   -0.82549000
 H         -1.81687701   -1.57167602    1.02823305
 H         -2.43484402    1.64002204   -0.67893702
 O         -3.02508402    0.70313603    1.08138704
 H         -3.16158891    0.02658500   -0.83002400
 H         -2.43442798    1.25260496    1.61071396
 H         -0.85102600   -2.29838490   -1.51484799
 H          1.40979195   -3.16949010    1.36628103
 C          1.74148798    2.66502690   -0.38547301
 H          2.26218009    2.88406897    0.55281401
 H          0.73175699    3.08014989   -0.34859699
 H          2.28773999    3.10468793   -1.21879196
 H          2.00225091   -0.49294001   -1.61929595
