26
wb97x-d4 ma-def2-tzvp(-f) cpcm(dmso) E: -726.361568816313, G: -726.18309639
 C         -1.07695496    0.25508800    0.14421400
 C         -0.96566200   -1.25781703    0.42969301
 O         -0.06371000    0.93700701    0.88805503
 C         -2.40729690    0.84329802    0.59330499
 H         -0.94437999    0.43088299   -0.92936200
 C          1.26200795    0.60616398    0.51203901
 C          1.50169694   -0.89165801    0.77650797
 H          1.89908803    1.21983302    1.15888798
 O          1.51599395    0.87485898   -0.83107799
 C          0.42640099   -1.70077002    0.11098000
 H          1.42867994   -1.02069795    1.86120796
 O          2.79335690   -1.23985302    0.29857701
 O          0.61680698   -2.01631093   -1.20575094
 O         -1.96180904   -1.99449205   -0.27321100
 H         -1.15580106   -1.40404701    1.49742699
 H         -2.58456492    0.58255202    1.64492500
 O         -3.48420405    0.40632001   -0.22848500
 H         -2.36144090    1.93147600    0.51272202
 H         -3.39402890   -0.55368602   -0.32055199
 H         -1.65989995   -2.10963392   -1.18446803
 H          1.57001805   -1.98070395   -1.38332796
 C          1.49313998    2.26827598   -1.13694000
 H          1.81526506    2.36851192   -2.17298293
 H          2.18187904    2.81493998   -0.48317999
 H          0.48558700    2.67914009   -1.02590501
 H          3.06983089   -2.04867911    0.74670303
