26
wb97x-d4 ma-def2-tzvp(-f) cpcm(dmso) E: -726.35864133144, G: -726.18274208
 C         -0.99070197    0.02677300   -0.19137400
 C         -0.93237901   -1.42789197    0.30575100
 O         -0.14357300    0.83736998    0.62350899
 C         -2.38750410    0.60639399   -0.17514400
 H         -0.64069098    0.05182000   -1.22970104
 C          1.23512995    0.58981597    0.43721899
 C          1.56052899   -0.89867300    0.17523800
 H          1.70579100    0.90619397    1.37325394
 O          1.75929105    1.32642996   -0.63394397
 C          0.46491799   -1.72158206    0.73661202
 H          2.51041198   -1.13313997    0.66513801
 O          1.66920602   -1.18862104   -1.23344100
 O          0.80234897   -2.98342395    1.12232697
 O         -1.39920104   -2.32883406   -0.71369600
 H         -1.62828803   -1.56610894    1.13798201
 H         -2.34240389    1.64030004   -0.53403997
 O         -2.91843200    0.55677700    1.14837301
 H         -3.00688410    0.02229500   -0.86410302
 H         -3.82725000    0.87426502    1.11307299
 H         -0.76809800   -2.28643298   -1.44505799
 H         -0.00019200   -3.50270510    1.27140605
 C          1.78991401    2.73397398   -0.39705801
 H          0.77783698    3.13470197   -0.30476201
 H          2.28659296    3.18777490   -1.25355995
 H          2.35516310    2.95361209    0.51500499
 H          2.06846595   -0.41108301   -1.64900601
