26
wb97x-d4 ma-def2-tzvp(-f) cpcm(dmso) E: -726.360019225774, G: -726.18250056
 C         -1.19055402    0.36084399    0.05665700
 C         -0.76913899   -1.02948105   -0.44312200
 O         -0.15393899    1.11146903    0.71626800
 C         -2.31376696    0.25197899    1.08459198
 H         -1.53959799    0.94143301   -0.80476999
 C          1.16960204    0.70272797    0.49990499
 C          1.38544095   -0.73583502    0.97962898
 H          1.78751194    1.39839602    1.07570195
 O          1.53678596    0.75670201   -0.85950297
 C          0.30146801   -1.58339298    0.42133799
 H          1.34975505   -0.73206598    2.07551193
 O          2.70565200   -1.18806696    0.66371602
 O          0.37110701   -2.91070199    0.71275300
 O         -0.42411301   -1.02727306   -1.84571695
 H         -1.65557003   -1.66732097   -0.38934600
 H         -2.01349092   -0.43556401    1.88010705
 O         -3.50790811   -0.27100900    0.51509100
 H         -2.48457193    1.23835099    1.52719796
 H         -3.88399696    0.40048599   -0.06645700
 H          0.36192399   -0.46436799   -1.92005098
 H         -0.38406700   -3.37095499    0.32222900
 C          1.61373103    2.08879995   -1.37227404
 H          1.97518003    2.01131797   -2.39701295
 H          2.31507707    2.68178797   -0.77660501
 H          0.63011301    2.56557012   -1.36409295
 H          2.81736803   -1.09383202   -0.29174599
