26
wb97x-d4 ma-def2-tzvp(-f) cpcm(dmso) E: -726.358630385019, G: -726.18190596
 C         -1.32847202   -0.05148300   -0.60964799
 C         -1.05020499   -1.52033198   -0.27076200
 O         -0.11940200    0.64267403   -0.93473101
 C         -2.19541693    0.66687101    0.41428801
 H         -1.89779401   -0.04073200   -1.54206395
 C          0.90076798    0.59918398    0.05436500
 C          1.31375802   -0.83823699    0.36329800
 H          0.55216098    1.08807802    0.97106999
 O          2.01563311    1.25427198   -0.46230301
 C          0.09598800   -1.62490702    0.67133200
 H          1.99835801   -0.82915902    1.21836495
 O          1.96962905   -1.43578196   -0.77729398
 O          0.31384000   -2.78120399    1.35943902
 O         -0.79199600   -2.27662992   -1.47651601
 H         -1.95386004   -1.95947599    0.16238700
 H         -2.25252390    1.72456598    0.13293600
 O         -1.68133295    0.52459103    1.73821294
 H         -3.20275807    0.23769300    0.35180500
 H         -2.26890206    1.00541496    2.33222795
 H          0.11956200   -2.07448792   -1.73494005
 H         -0.50532299   -3.29334903    1.40200698
 C          1.85990906    2.67142296   -0.54575300
 H          1.09257996    2.93888903   -1.27611196
 H          2.82157612    3.07482100   -0.86167300
 H          1.59326398    3.08198595    0.43414000
 H          2.60096097   -0.78468299   -1.11407804
