26
wb97x-d4 ma-def2-tzvp(-f) cpcm(dmso) E: -726.357529181316, G: -726.18029183
 C         -1.07497394    0.13415401   -0.00018400
 C         -1.04142106   -1.29314899    0.56580102
 O         -0.07146600    0.89548498    0.66587102
 C         -2.40541697    0.83155102    0.24505700
 H         -0.88068998    0.10123800   -1.07825899
 C          1.25336897    0.54895198    0.31277901
 C          1.42709696   -0.94364798   -0.06365100
 H          1.84994698    0.76610398    1.20481396
 O          1.71549797    1.30977798   -0.76766300
 C          0.36916301   -1.73900998    0.60098499
 H          2.41560411   -1.25607896    0.29308200
 O          1.35383201   -1.14815402   -1.48581505
 O          0.62669802   -2.92945504    1.20264399
 O         -1.91275597   -2.16314507   -0.19090700
 H         -1.47259796   -1.29465795    1.57409704
 H         -2.62065792    0.83059901    1.32143700
 O         -3.46580410    0.22328401   -0.48598000
 H         -2.33215094    1.86793804   -0.09154000
 H         -3.35109806   -0.73620600   -0.41294500
 H         -1.50349700   -2.31109810   -1.05456805
 H          1.57044601   -3.13069201    1.14178097
 C          1.90601599    2.68907499   -0.45097801
 H          2.34196997    3.15836191   -1.33211505
 H          2.59045196    2.79240203    0.39802000
 H          0.95328403    3.16822696   -0.21277100
 H          1.75915396   -0.37185600   -1.89899004
