26
wb97x-d4 ma-def2-tzvp(-f) cpcm(dmso) E: -726.363954817931, G: -726.18628981
 C         -1.02808404    0.26333401   -0.11828700
 C         -0.88967597   -1.25702703   -0.04188200
 O         -0.18507899    0.87896001    0.85843003
 C         -2.44609308    0.75666797    0.11496700
 H         -0.72938502    0.58932602   -1.12239206
 C          1.19155598    0.63219100    0.66373301
 C          1.50849903   -0.86051899    0.80687898
 H          1.69912398    1.20815802    1.44465196
 O          1.63883698    1.03221095   -0.60128403
 C          0.55184901   -1.65665197   -0.02050900
 H          1.39033198   -1.12194598    1.86729002
 O          2.87085605   -1.12529898    0.50201797
 O          0.80879998   -2.99644089   -0.06546800
 O         -1.58654201   -1.90917695   -1.10582399
 H         -1.37759900   -1.61922395    0.87422502
 H         -2.43704700    1.84837997    0.08152400
 O         -2.97898889    0.38958001    1.38504398
 H         -3.08357596    0.39298600   -0.69600701
 H         -3.34265900   -0.50005901    1.32062697
 H         -1.18914902   -1.62313700   -1.94015801
 H          0.06482200   -3.42506790   -0.51543301
 C          1.62489104    2.44706702   -0.78469002
 H          2.20248508    2.94044495    0.00459400
 H          0.60125899    2.83208609   -0.78090400
 H          2.08399391    2.64480805   -1.75274396
 H          3.03657293   -0.76165199   -0.37840101
