26
wb97x-d4 ma-def2-tzvp(-f) cpcm(dmso) E: -726.362815505123, G: -726.18623629
 C         -1.08309901    0.23295800   -0.13264500
 C         -0.89111102   -1.28494298   -0.11320500
 O         -0.19383401    0.85859501    0.79787499
 C         -2.48407197    0.66225201    0.26047999
 H         -0.88138002    0.59980798   -1.14606297
 C          1.17903304    0.66225803    0.50738001
 C          1.52090096   -0.82073599    0.64417499
 H          1.71428597    1.24951196    1.26145506
 O          1.51582396    1.09156203   -0.77561998
 C          0.56128699   -1.63315499   -0.16135900
 H          1.40108001   -1.06653500    1.71211803
 O          2.87947392   -1.01714206    0.27086401
 O          0.87521398   -2.96123004   -0.22814600
 O         -1.60757399   -1.92092097   -1.17491102
 H         -1.34037900   -1.68817306    0.80484998
 H         -2.56075406    1.75018501    0.15332200
 O         -2.83051300    0.26291800    1.58216500
 H         -3.20575404    0.19520400   -0.41160801
 H         -2.19631696    0.67017800    2.18479705
 H         -1.24024105   -1.60626602   -2.01255989
 H          0.13885701   -3.42672110   -0.65203398
 C          1.41337395    2.50506592   -0.93636101
 H          1.79898596    2.73754501   -1.92862701
 H          2.01310205    3.02164793   -0.17859501
 H          0.37340999    2.83617210   -0.86243701
 H          3.13019991   -1.91003895    0.53469199
