26
wb97x-d4 ma-def2-tzvp(-f) cpcm(dmso) E: -726.363543212405, G: -726.1861507899999
 C         -1.08387005   -0.00238700   -0.02036500
 C         -0.85413402   -1.47263801    0.35548601
 O         -0.24400100    0.82036000    0.79771399
 C         -2.50418091    0.45945001    0.23606500
 H         -0.83352602    0.14292200   -1.07682097
 C          1.14460003    0.62432301    0.61334401
 C          1.51911700   -0.83027703    0.96138197
 H          1.62353694    1.32451200    1.30714202
 O          1.55557203    0.87577701   -0.69788200
 C          0.61516500   -1.77425599    0.22430700
 H          1.33507597   -0.94154900    2.03327489
 O          2.89616704   -1.07096398    0.74636799
 O          1.03887498   -2.12079906   -1.02819300
 O         -1.61720800   -2.27738595   -0.53889501
 H         -1.17382801   -1.61746502    1.39344597
 H         -3.19478512   -0.14851300   -0.34860501
 O         -2.69543195    1.81257606   -0.16659699
 H         -2.73882008    0.33467299    1.30069399
 H         -2.05322099    2.34767389    0.31586501
 H         -1.74843895   -3.14295197   -0.13262101
 H          0.27063200   -2.49318910   -1.49186897
 C          1.43378794    2.24823999   -1.07053804
 H          0.38307899    2.54738402   -1.12177300
 H          1.88971496    2.35103798   -2.05459690
 H          1.95905006    2.88741493   -0.35231501
 H          3.07707405   -0.88396901   -0.18401401
