27
wb97x-d4 ma-def2-tzvp(-f) cpcm(dmso) E: -727.030108117887, G: -726.83741963
 C         -1.04592299    0.15923300   -0.40665501
 C         -0.84012502   -1.34707904   -0.55351299
 O         -0.44811499    0.65497100    0.79762000
 C         -2.50188088    0.59227997   -0.38308400
 H         -0.58741599    0.64562798   -1.27616298
 C          0.94158500    0.42041400    0.87999600
 C          1.24175704   -1.07820499    0.80558401
 H          1.25076699    0.83494002    1.84519804
 O          1.64600396    1.05344200   -0.16173799
 C          0.65051103   -1.69354498   -0.46253499
 H          0.75401598   -1.54072797    1.66438401
 O          2.62858391   -1.33757997    0.93476802
 O          1.35783398   -1.29140306   -1.63211703
 H          0.74783599   -2.78039908   -0.40694600
 O         -1.50177002   -2.10285997    0.45615900
 H         -1.19918501   -1.63826096   -1.54886699
 H         -2.55263805    1.68443000   -0.35127199
 O         -3.23091102    0.03241700    0.71531099
 H         -2.99232602    0.24517401   -1.29448903
 H         -2.93364692    0.47175699    1.52182102
 H         -2.29458690   -1.60621202    0.71702302
 H          1.47951400   -0.33081001   -1.59292197
 C          1.59433997    2.47931004   -0.10237100
 H          2.25804496    2.85210800   -0.88143098
 H          1.94074500    2.82758999    0.87622201
 H          0.57838202    2.84126711   -0.27994201
 H          3.05860400   -1.04787898    0.11995800
