27
wb97x-d4 ma-def2-tzvp(-f) cpcm(dmso) E: -727.030104174705, G: -726.83741947
 C         -1.05610502    0.15920299   -0.37998000
 C         -0.85343897   -1.34661496   -0.53413802
 O         -0.42835000    0.65367001    0.80963802
 C         -2.51033998    0.59294599   -0.32152799
 H         -0.61836398    0.64613003   -1.26002395
 C          0.96293497    0.41916299    0.85776401
 C          1.26233196   -1.07915699    0.77158302
 H          1.29387105    0.83169800    1.81667602
 O          1.64182699    1.05564106   -0.19817300
 C          0.63887203   -1.69222796   -0.48221499
 H          0.79793698   -1.54423201    1.64199996
 O          2.65196490   -1.33839595    0.86461502
 O          1.31441700   -1.28736496   -1.66938198
 H          0.73809803   -2.77922797   -0.43181100
 O         -1.48814702   -2.10462809    0.49085101
 H         -1.23748899   -1.63680506   -1.52046394
 H         -2.55929494    1.68485498   -0.27901700
 O         -3.21872592    0.02471900    0.78606999
 H         -3.01986909    0.25450501   -1.22590601
 H         -2.91509008    0.46408901    1.59011102
 H         -2.27729511   -1.61147797    0.76890302
 H          1.44117200   -0.32743499   -1.62982702
 C          1.59487605    2.48099208   -0.13289601
 H          1.96611500    2.82570910    0.83796602
 H          0.57556301    2.84595704   -0.28431299
 H          2.24014091    2.85452104   -0.92711401
 H          3.06238794   -1.04623199    0.04061200
