27
wb97x-d4 ma-def2-tzvp(-f) cpcm(dmso) E: -727.02624547325, G: -726.83439435
 C         -1.05874503    0.17247100   -0.14481100
 C         -0.90721798   -1.33528101   -0.30506799
 O         -0.28868699    0.62251598    0.97893602
 C         -2.48208809    0.62806600    0.12076100
 H         -0.70463300    0.66015899   -1.05918300
 C          1.10176694    0.39804900    0.83730602
 C          1.38375604   -1.10123503    0.70373201
 H          1.55260503    0.80568999    1.74814296
 O          1.63065505    1.04120004   -0.29314700
 C          0.57950199   -1.70326197   -0.44983000
 H          1.05562997   -1.56710100    1.63533700
 O          2.76904106   -1.36945105    0.59273899
 O          1.09422505   -1.30080998   -1.71715796
 H          0.67074698   -2.79118109   -0.41805199
 O         -1.49397600   -2.05082011    0.77759302
 H         -1.42912602   -1.65614605   -1.20820904
 H         -2.86578488    0.15269700    1.02898395
 O         -3.26732898    0.26801401   -1.01267004
 H         -2.47753906    1.71337605    0.26823300
 H         -4.17926121    0.52510101   -0.83815700
 H         -1.25913596   -1.61359096    1.60575294
 H          1.23510695   -0.34239501   -1.69599104
 C          1.57570100    2.46643806   -0.22193100
 H          0.54140800    2.81928492   -0.25165799
 H          2.11773610    2.84603405   -1.08723295
 H          2.05536604    2.81631398    0.69816101
 H          3.05027890   -1.10413694   -0.29257900
