27
wb97x-d4 ma-def2-tzvp(-f) cpcm(dmso) E: -727.025076843954, G: -726.83381236
 C         -1.15673995    0.04807000   -0.21017700
 C         -0.96135098   -1.44184101   -0.45218900
 O         -0.44629401    0.41952601    0.98057097
 C         -2.61288691    0.42998901   -0.02212200
 H         -0.74881101    0.59532100   -1.06631601
 C          0.95475203    0.29714099    0.86300200
 C          1.35554504   -1.13686395    0.50156599
 H          1.34261501    0.55605298    1.85478902
 O          1.49641299    1.16257799   -0.09687600
 C          0.52881497   -1.73909700   -0.64181203
 H          1.17644298   -1.74618196    1.39146101
 O          2.74554610   -1.21307504    0.21564600
 O          0.90092200   -1.21859396   -1.91094398
 H          0.67059600   -2.82630801   -0.62720901
 O         -1.50138605   -2.22151804    0.60989702
 H         -1.49007404   -1.73945105   -1.36100996
 H         -3.19590092   -0.00902000   -0.84008199
 O         -2.80551791    1.84035206    0.03795600
 H         -2.98782206    0.02923000    0.92089599
 H         -2.57402205    2.21370006   -0.82089698
 H         -1.26024604   -1.80314898    1.44660103
 H          1.85656095   -1.32281995   -1.99746597
 C          1.43456304    2.53534198    0.28790700
 H          0.39805600    2.88071394    0.33160099
 H          1.97645497    3.10089302   -0.46944100
 H          1.90819705    2.68015289    1.26527703
 H          2.99557400   -0.37114400   -0.19062801
