27
wb97x-d4 ma-def2-tzvp(-f) cpcm(dmso) E: -727.024574016969, G: -726.83359478
 C         -1.04961205    0.23923799   -0.20920099
 C         -0.92436999   -1.27649903   -0.28839099
 O         -0.34447700    0.70802897    0.94838399
 C         -2.47950411    0.74084800   -0.04919000
 H         -0.61469001    0.67204797   -1.11451995
 C          1.05783403    0.50531501    0.87231803
 C          1.36170900   -0.99158603    0.73655498
 H          1.44557595    0.87857199    1.82743096
 O          1.64368999    1.20418596   -0.18504301
 C          0.55907500   -1.66823804   -0.37501699
 H          1.05895102   -1.44620395    1.68288302
 O          2.74947095   -1.23289204    0.60253400
 O          1.10994899   -1.28272903   -1.63243699
 H          0.64399701   -2.75197792   -0.24647801
 O         -1.55358803   -1.92004597    0.81649297
 H         -1.42628706   -1.64310205   -1.18750894
 H         -2.90905309    0.36272901    0.88325000
 O         -3.29155803    0.38734201   -1.16409600
 H         -2.45983601    1.83129704   -0.00023500
 H         -3.57384300   -0.52800900   -1.05756998
 H         -1.32244098   -1.43662000    1.62029696
 H          0.89251697   -1.96703804   -2.27504492
 C          1.60759699    2.61836290   -0.00612700
 H          2.05459094    2.89527392    0.95548999
 H          0.58135700    2.99404502   -0.04895700
 H          2.18843889    3.05568409   -0.81781203
 H          2.99450302   -0.94802701   -0.28800800
