27
wb97x-d4 ma-def2-tzvp(-f) cpcm(dmso) E: -727.025101706305, G: -726.83357875
 C         -1.14580500    0.05266400   -0.26997900
 C         -0.94621998   -1.43920195   -0.49662799
 O         -0.49684000    0.42526999    0.95507997
 C         -2.60712409    0.44425499   -0.16025300
 H         -0.69082302    0.59425098   -1.10583198
 C          0.90786397    0.29463699    0.91090602
 C          1.32041395   -1.14236104    0.57450199
 H          1.24565804    0.55476499    1.92051399
 O          1.50348198    1.15326500   -0.02256300
 C          0.55026197   -1.74459004   -0.60790902
 H          1.09466195   -1.74853396    1.45604002
 O          2.72270489   -1.22319698    0.35922700
 O          0.98875499   -1.22953701   -1.85796404
 H          0.68586302   -2.83241701   -0.58319497
 O         -1.54609704   -2.21299911    0.53718501
 H         -1.42785001   -1.73654699   -1.43125999
 H         -3.14921093    0.00439800   -1.00544405
 O         -2.79320002    1.85618198   -0.11764800
 H         -3.03347397    0.05102300    0.76393700
 H         -2.51099706    2.22359705   -0.96374899
 H         -1.35337698   -1.79061306    1.38438296
 H          1.94716406   -1.33639097   -1.89523101
 C          1.43984401    2.52713394    0.35750899
 H          2.02394199    3.08489609   -0.37378100
 H          1.86856306    2.66777396    1.35601997
 H          0.40672901    2.88497400    0.35153100
 H          2.99511194   -0.38269699   -0.03539900
