27
wb97x-d4 ma-def2-tzvp(-f) cpcm(dmso) E: -727.023809463771, G: -726.8334689
 C         -1.05349898    0.18831600   -0.07100100
 C         -0.88286197   -1.32200301   -0.20196000
 O         -0.27452800    0.69546700    1.01540601
 C         -2.48483896    0.62234902    0.21683900
 H         -0.72111398    0.64412802   -1.01110303
 C          1.11761701    0.50964200    0.85347700
 C          1.44245100   -0.97935301    0.68703598
 H          1.56054401    0.88107401    1.78512704
 O          1.63027000    1.22747600   -0.23259801
 C          0.59978598   -1.66127205   -0.38828501
 H          1.19510102   -1.45123506    1.63993204
 O          2.82749009   -1.18673098    0.47780901
 O          1.05961096   -1.23166895   -1.66710496
 H          0.72773600   -2.74386597   -0.28960401
 O         -1.32755101   -2.02153206    0.95841998
 H         -1.42800403   -1.66491997   -1.08713603
 H         -2.81778193    0.19880100    1.16676104
 O         -3.39313602    0.15836900   -0.77701402
 H         -2.51338696    1.71341002    0.30291700
 H         -3.20938206    0.62865901   -1.59891403
 H         -2.28848410   -2.08390903    0.92893499
 H          0.80373001   -1.89846206   -2.31404090
 C          1.60036194    2.63753009   -0.02750200
 H          0.57213002    3.00835109    0.01061700
 H          2.11959791    3.09298801   -0.87045598
 H          2.11380410    2.90108204    0.90452302
 H          3.02433705   -0.86269200   -0.41108200
