27
wb97x-d4 ma-def2-tzvp(-f) cpcm(dmso) E: -727.025093329122, G: -726.83337794
 C         -1.04690504    0.25066400   -0.35605001
 C         -0.92229003   -1.26585495   -0.44114101
 O         -0.43244201    0.70241499    0.85763103
 C         -2.47209096    0.77403897   -0.41241899
 H         -0.51990098    0.67650598   -1.21640599
 C          0.97159398    0.49773899    0.87486303
 C          1.29090202   -0.99722999    0.73306298
 H          1.29343605    0.85221797    1.86107397
 O          1.63018203    1.21500802   -0.12645900
 C          0.56072301   -1.66263402   -0.43533799
 H          0.93739200   -1.46773696    1.65418696
 O          2.68450189   -1.23230898    0.67770898
 O          1.19058895   -1.26082695   -1.64895999
 H          0.63623500   -2.74804091   -0.31474999
 O         -1.62829900   -1.92540205    0.61494702
 H         -1.37483704   -1.61831796   -1.37110496
 H         -2.44800711    1.86538899   -0.37645701
 O         -3.30877399    0.35135400    0.65961099
 H         -2.89652205    0.47301599   -1.37874198
 H         -3.20085311   -0.60647100    0.74110901
 H         -1.30684304   -1.58105803    1.45862997
 H          1.00579500   -1.93050599   -2.31685710
 C          1.59375095    2.62504506    0.08220600
 H          1.98591495    2.87623405    1.07432497
 H          0.57465303    3.01067591   -0.01202000
 H          2.22461796    3.07537198   -0.68371397
 H          2.97747588   -0.94928497   -0.19893600
