27
wb97x-d4 ma-def2-tzvp(-f) cpcm(dmso) E: -727.023495843183, G: -726.83309174
 C         -1.26068997    0.08776600   -0.73802698
 C         -0.81318098   -1.36836004   -0.88663000
 O         -0.11284100    0.94322997   -0.69824702
 C         -2.18769193    0.34031901    0.44811299
 H         -1.79056501    0.38707700   -1.64524400
 C          0.82203197    0.64503503    0.33463100
 C          1.35645604   -0.77906400    0.21790600
 H          0.34386101    0.77398002    1.31691396
 O          1.89290094    1.51811099    0.20434600
 C          0.18921500   -1.75679505    0.19604801
 H          1.98654902   -0.98107100    1.09148800
 O          2.09518504   -0.97055602   -0.98083800
 O          0.62950802   -3.09677291    0.00951000
 H         -0.30487800   -1.73561394    1.17065096
 O         -1.96795797   -2.19664192   -0.83363801
 H         -0.32343999   -1.46968997   -1.86205101
 H         -3.10437989   -0.23228499    0.31109801
 O         -2.55998802    1.71451497    0.50966698
 H         -1.73363304    0.02631500    1.39396095
 H         -1.74891400    2.23754096    0.48232901
 H         -1.66330898   -3.11102104   -0.89063901
 H          1.25568902   -3.09369707   -0.72747499
 C          1.58361900    2.86548805    0.56502199
 H          1.17112005    2.90241504    1.57920694
 H          0.87043500    3.30509996   -0.13664301
 H          2.52002907    3.42114091    0.53045201
 H          2.85487103   -0.37646699   -0.96191198
