27
wb97x-d4 ma-def2-tzvp(-f) cpcm(dmso) E: -727.021995569621, G: -726.83145008
 C         -1.19701505    0.12875000   -0.72972298
 C         -0.77269101   -1.33568799   -0.88779598
 O         -0.02749400    0.94765103   -0.69219702
 C         -2.13735199    0.37025699    0.45160201
 H         -1.71899104    0.43846500   -1.63973498
 C          0.86929703    0.64417601    0.36681101
 C          1.38307703   -0.78993601    0.27063400
 H          0.36660200    0.78784001    1.33413506
 O          1.95990705    1.49800503    0.26346099
 C          0.19980900   -1.74792397    0.21403900
 H          1.98371696   -1.00193906    1.16258097
 O          2.15411210   -0.99710000   -0.90568602
 O          0.62299198   -3.09381008    0.02738200
 H         -0.31598800   -1.72659099    1.17744195
 O         -1.93540895   -2.15433097   -0.87288302
 H         -0.26087701   -1.42985106   -1.85256100
 H         -3.02718592   -0.24921100    0.31262001
 O         -2.48616600    1.74602997    0.57768399
 H         -1.68239605    0.08798000    1.40180099
 H         -2.99895310    2.00060606   -0.19868700
 H         -1.63629603   -3.07016492   -0.93594402
 H          1.27279794   -3.09332609   -0.68892503
 C          1.66326296    2.85124111    0.61181200
 H          2.60890007    3.39214396    0.59878600
 H          1.22641003    2.89861703    1.61528301
 H          0.97394902    3.29926205   -0.10804800
 H          2.91198111   -0.40114999   -0.87388802
