27
wb97x-d4 ma-def2-tzvp(-f) cpcm(dmso) E: -727.0286010913, G: -726.8369622399999
 C         -1.11832595    0.11642400   -0.27794099
 C         -0.89625400   -1.36687195   -0.53171903
 O         -0.46798801    0.54570103    0.92769700
 C         -2.57977891    0.49342099   -0.13425800
 H         -0.70519698    0.67163903   -1.12717104
 C          0.92885101    0.34775001    0.92247099
 C          1.25299096   -1.13729095    0.74216098
 H          1.27911901    0.71100599    1.89439702
 O          1.56599605    1.05832601   -0.11258800
 C          0.60759801   -1.68739903   -0.52980602
 H          0.81834501   -1.65911400    1.59597301
 O          2.64826703   -1.37934899    0.78457302
 O          1.24439597   -1.19862700   -1.70680797
 H          0.73422301   -2.77346301   -0.54867601
 O         -1.56806600   -2.11057711    0.48131800
 H         -1.29862797   -1.60983503   -1.52200794
 H         -3.12964201    0.13652200   -1.00758100
 O         -2.75085211    1.90833497   -0.08799000
 H         -2.99937510    0.02431500    0.76010197
 H         -2.26647592    2.23216891    0.68119401
 H         -1.50748897   -3.04609704    0.25470400
 H          1.35060406   -0.23976000   -1.61341703
 C          1.46686804    2.47637701    0.02523500
 H          1.83904302    2.78591704    1.00741506
 H          0.43244001    2.80862403   -0.09436700
 H          2.08555794    2.91391110   -0.75718802
 H          3.03377295   -1.02205205   -0.02572000
