27
wb97x-d4 ma-def2-tzvp(-f) cpcm(dmso) E: -727.022070491706, G: -726.83050256
 C         -0.94917798    0.23627099   -0.45352000
 C         -0.87385798   -1.29772794   -0.44887099
 O         -0.30433601    0.76997900    0.70690298
 C         -2.35841608    0.80376798   -0.52900499
 H         -0.42139199    0.58575100   -1.34658003
 C          1.09306502    0.57347202    0.70505399
 C          1.50796103   -0.80019999    0.14006400
 H          1.38653898    0.63992900    1.75850201
 O          1.76750100    1.54768002   -0.04312300
 C          0.35097799   -1.76208794    0.34301201
 H          2.38184404   -1.15045595    0.69940603
 O          1.80800104   -0.76731002   -1.25080502
 O          0.69195098   -3.10719395    0.02950200
 H          0.08899000   -1.76033497    1.40374196
 O         -2.06562901   -1.85788405    0.11205500
 H         -0.77820098   -1.63530505   -1.48616302
 H         -2.28882504    1.88659096   -0.65201497
 O         -3.14403796    0.57791901    0.63478100
 H         -2.84500504    0.38835499   -1.42023695
 H         -3.15401411   -0.38004199    0.77051401
 H         -1.99089098   -2.81891990    0.07781400
 H          0.98842698   -3.12987709   -0.88962001
 C          1.70666301    2.85097694    0.53583801
 H          2.31670904    3.50242591   -0.08900600
 H          2.11058092    2.83436704    1.55401003
 H          0.67849898    3.22041988    0.55702400
 H          2.29607511    0.04943500   -1.41927695
