27
wb97x-d4 ma-def2-tzvp(-f) cpcm(dmso) E: -727.021904095531, G: -726.83041339
 C         -1.02359700    0.01402500   -0.40540901
 C         -0.83798099   -1.50124002   -0.55796498
 O         -0.37935099    0.46634501    0.79531902
 C         -2.46885896    0.45725501   -0.32113501
 H         -0.55855602    0.50861299   -1.26267695
 C          1.02929401    0.42058000    0.70905000
 C          1.53715098   -0.80525100   -0.07524600
 H          1.37364197    0.36296999    1.74737000
 O          1.56018603    1.55686498    0.08644400
 C          0.51394200   -1.92367494    0.03961900
 H          2.48090410   -1.12860703    0.37647799
 O          1.73202002   -0.54322797   -1.46012604
 O          0.99214798   -3.13647008   -0.52577698
 H          0.36599901   -2.12895799    1.10412502
 O         -1.89894700   -2.27224803    0.00083100
 H         -0.84640300   -1.73802900   -1.62423396
 H         -3.01810598    0.07943100   -1.18544805
 O         -2.57213998    1.87918496   -0.35044399
 H         -2.93302488    0.05750000    0.58609498
 H         -2.04782510    2.21980691    0.38468301
 H         -1.89705396   -2.15246105    0.95860702
 H          1.22190797   -2.96092296   -1.44726396
 C          1.40652597    2.75172305    0.85135102
 H          0.35064501    3.00942111    0.96614403
 H          1.91730404    3.54344010    0.30431801
 H          1.86333895    2.63314199    1.83998001
 H          2.13683891    0.33079001   -1.53469002
