27
wb97x-d4 ma-def2-tzvp(-f) cpcm(dmso) E: -727.02057904437, G: -726.8303886699999
 C         -1.14679897    0.17935200   -0.91364098
 C         -0.77335799   -1.30875802   -0.90005100
 O          0.03798600    0.97346598   -0.80741501
 C         -2.25177407    0.60187697    0.04157300
 H         -1.53438306    0.40916899   -1.91022801
 C          0.86868399    0.69876403    0.31656301
 C          1.33443904   -0.75324702    0.33123901
 H          0.32314399    0.92138702    1.24093401
 O          1.99986100    1.50169897    0.20980400
 C          0.12754700   -1.67861295    0.27405301
 H          1.88555801   -0.92642599    1.26303005
 O          2.15702200   -1.05437100   -0.79032803
 O          0.52376801   -3.04429507    0.17836200
 H         -0.43611899   -1.58443201    1.20190895
 O         -1.97282696   -2.07302308   -0.88829702
 H         -0.21720500   -1.50895596   -1.82397699
 H         -2.37823701    1.68610001   -0.05821800
 O         -1.95106399    0.25827599    1.39440095
 H         -3.17827106    0.11436400   -0.27817100
 H         -2.67886996    0.56503803    1.94653797
 H         -1.71321499   -3.00271702   -0.89362699
 H          1.20756495   -3.09775805   -0.50330800
 C          1.74951804    2.88066196    0.48140901
 H          1.09783006    3.31866503   -0.27901399
 H          2.71606493    3.38392591    0.46808201
 H          1.28891301    2.99674010    1.46878099
 H          2.91422510   -0.45688799   -0.77040398
