27
wb97x-d4 ma-def2-tzvp(-f) cpcm(dmso) E: -727.021480839904, G: -726.83028425
 C         -1.08828902    0.22431099   -0.96749097
 C         -0.79712898   -1.27838600   -0.84431398
 O          0.12420600    0.97233701   -0.84867603
 C         -2.21596193    0.73837602   -0.07303300
 H         -1.41777897    0.41743201   -1.99207795
 C          0.87964100    0.72125900    0.32826701
 C          1.32151306   -0.73667300    0.39784801
 H          0.28069299    0.96871603    1.21491206
 O          2.02436495    1.51143098    0.27619600
 C          0.08999500   -1.62807298    0.35054201
 H          1.85063100   -0.89369601    1.34454405
 O          2.15468502   -1.09281397   -0.69830000
 O          0.43949100   -3.00879407    0.30946100
 H         -0.47000700   -1.48557901    1.27427995
 O         -2.04839396   -1.95597005   -0.75876498
 H         -0.26771700   -1.59024405   -1.75203001
 H         -2.17129493    1.83001494   -0.07542700
 O         -2.15610909    0.32113001    1.29043901
 H         -3.16890907    0.43654799   -0.51604801
 H         -2.50903702   -0.57560998    1.32870901
 H         -1.85468304   -2.89953804   -0.69338399
 H          1.12179899   -3.11006904   -0.36818799
 C          1.76895201    2.90048909    0.48853600
 H          2.73779392    3.39790511    0.51603597
 H          1.25310802    3.05064511    1.44307196
 H          1.16622603    3.31724405   -0.32190400
 H          2.95220995   -0.55239099   -0.65320402
