27
wb97x-d4 ma-def2-tzvp(-f) cpcm(dmso) E: -727.028701260739, G: -726.83638646
 C         -1.08267105    0.29581600   -0.28099900
 C         -0.95035601   -1.21632898   -0.41360500
 O         -0.36796501    0.78853101    0.85820502
 C         -2.51791310    0.78944498   -0.18334401
 H         -0.66603702    0.73777002   -1.19450700
 C          1.01037896    0.49186999    0.84039700
 C          1.23384798   -1.02083004    0.79259300
 H          1.41135395    0.91882497    1.76580298
 O          1.66458797    1.05762696   -0.27069700
 C          0.52624798   -1.63771296   -0.41348800
 H          0.78500801   -1.43379498    1.69740903
 O          2.61089301   -1.34817398    0.83607799
 O          1.16234696   -1.29928696   -1.64214396
 H          0.57761800   -2.72740602   -0.33731100
 O         -1.63653398   -1.84090996    0.67679101
 H         -1.39881396   -1.51623797   -1.36660397
 H         -2.51423693    1.88181996   -0.19102800
 O         -3.19805408    0.38899201    1.00001299
 H         -3.05057406    0.44402099   -1.07908297
 H         -3.00403810   -0.55231500    1.12221599
 H         -1.74634099   -2.77752900    0.47447899
 H          1.34074795   -0.34640801   -1.63464797
 C          1.68971896    2.48505211   -0.25707200
 H          0.68212199    2.89493704   -0.36656901
 H          2.30651093    2.79722810   -1.09916902
 H          2.13146901    2.84461498    0.67826802
 H          3.00068307   -1.09961200   -0.01198500
