27
wb97x-d4 ma-def2-tzvp(-f) cpcm(dmso) E: -727.027005893036, G: -726.83543413
 C         -1.06812000    0.29649901   -0.15590200
 C         -0.95106000   -1.21820903   -0.26028499
 O         -0.29417601    0.81107903    0.93450302
 C         -2.49090600    0.78359300    0.09732300
 H         -0.71318400    0.72739202   -1.09860694
 C          1.08200002    0.51063102    0.85718000
 C          1.29636800   -1.00368297    0.83119798
 H          1.52802503    0.95459199    1.75350595
 O          1.68434000    1.05067205   -0.29480800
 C          0.52493399   -1.64192998   -0.32328001
 H          0.89293498   -1.39499295    1.76641297
 O          2.67298102   -1.33708799    0.80789500
 O          1.10166502   -1.33086097   -1.58889997
 H          0.58178699   -2.72984004   -0.22726800
 O         -1.59534299   -1.80235302    0.86879098
 H         -1.43528199   -1.53948498   -1.18911695
 H         -2.82915306    0.43796799    1.07748103
 O         -3.38573599    0.36678600   -0.92796302
 H         -2.48880792    1.87530506    0.09559900
 H         -3.62026095   -0.55449402   -0.76797497
 H         -1.63456905   -2.75609994    0.73151398
 H          1.26888597   -0.37633699   -1.61430895
 C          1.70417202    2.47842097   -0.31456301
 H          2.18155098    2.86076403    0.59377700
 H          0.69161397    2.88248110   -0.39282399
 H          2.28534508    2.77396894   -1.18726599
 H          3.00999594   -1.12477803   -0.07211500
