27
wb97x-d4 ma-def2-tzvp(-f) cpcm(dmso) E: -727.02628204361, G: -726.8352412099999
 C         -1.08978796    0.06775500   -0.35584599
 C         -0.85990101   -1.41974497   -0.57292902
 O         -0.52005601    0.44949099    0.90750903
 C         -2.54903007    0.47134799   -0.30967301
 H         -0.59323502    0.61777598   -1.16021395
 C          0.89555502    0.34865999    0.93272102
 C          1.32034099   -1.10043299    0.66004503
 H          1.17699504    0.63371700    1.95308805
 O          1.50709605    1.20023501    0.01174500
 C          0.65109402   -1.70219195   -0.57636499
 H          0.98987901   -1.67881298    1.52619803
 O          2.72784400   -1.23013604    0.60707802
 O          1.26297104   -1.14166498   -1.73534000
 H          0.80657601   -2.78558111   -0.55673498
 O         -1.52163506   -2.21533990    0.40624100
 H         -1.26839602   -1.71688795   -1.54262900
 H         -3.03724790    0.15904699   -1.23529100
 O         -2.69353104    1.88685095   -0.22249600
 H         -3.05093098   -0.01835200    0.53139001
 H         -2.22695208    2.17538500    0.57159901
 H         -1.40740097   -1.79633605    1.26902604
 H          1.13219404   -1.75234997   -2.46914291
 C          1.35519099    2.57894206    0.34080401
 H          1.71547198    2.77268195    1.35767496
 H          0.30912301    2.88902998    0.26247299
 H          1.95550001    3.14277601   -0.37271500
 H          3.01227498   -0.83586699   -0.22821400
