27
wb97x-d4 ma-def2-tzvp(-f) cpcm(dmso) E: -727.026915861371, G: -726.83478036
 C         -1.06201398    0.23129401   -0.22205400
 C         -0.92595798   -1.28266501   -0.33483401
 O         -0.35273600    0.69973201    0.93405098
 C         -2.49730301    0.71358103   -0.04455900
 H         -0.65091699    0.69072998   -1.12678599
 C          1.03936100    0.44637799    0.88869798
 C          1.29723096   -1.06117702    0.81805003
 H          1.44074702    0.87201399    1.81442201
 O          1.65402305    1.04428101   -0.22352900
 C          0.55848497   -1.68262196   -0.36861601
 H          0.89764899   -1.49193394    1.73879898
 O          2.68089390   -1.35952902    0.80608702
 O          1.16403103   -1.32824194   -1.60979903
 H          0.62463200   -2.77053499   -0.29820701
 O         -1.60519803   -1.95842695    0.71990800
 H         -1.38584101   -1.62064803   -1.26620400
 H         -2.91029596    0.32907799    0.89244598
 O         -3.31510711    0.34863901   -1.15031195
 H         -2.49192691    1.80412197    0.00454700
 H         -3.57283902   -0.57446003   -1.04632902
 H         -1.41591501   -1.50608397    1.55192304
 H          1.31346405   -0.37074599   -1.61007404
 C          1.62242699    2.47223401   -0.19695900
 H          2.22833490    2.81640697   -1.03415596
 H          2.04667306    2.84042001    0.74290299
 H          0.59974498    2.84232807   -0.30624199
 H          3.01835394   -1.14417005   -0.07317200
