27
wb97x-d4 ma-def2-tzvp(-f) cpcm(dmso) E: -727.026681005564, G: -726.83575186
 C         -1.28048301   -0.09565300    0.30575201
 C         -1.21546805    1.39474595   -0.02334400
 O         -0.18839800   -0.78113800   -0.31634200
 C         -2.55111599   -0.76145703   -0.18203200
 H         -1.20916402   -0.21553101    1.39464200
 C          1.06275904   -0.35370100    0.19885100
 C          1.29594505    1.12425697   -0.10158000
 C          0.13217799    1.96897900    0.42960700
 H          2.22487807    1.43621695    0.39061099
 O          1.37656498    1.34876704   -1.50770295
 O          0.13321100    1.97252798    1.85217094
 H          0.22874700    2.98577309    0.03479100
 O         -1.42516696    1.64658201   -1.40737998
 H         -2.01110792    1.91045702    0.51994699
 H         -3.41433001   -0.24675000    0.24466699
 O         -2.62720990   -2.12111902    0.24238899
 H         -2.60709906   -0.69448501   -1.27251303
 H         -1.85074699   -2.57373190   -0.10930500
 H         -0.60835201    1.39868796   -1.86684895
 H          0.91565502    2.44857693    2.15464401
 H          1.94809604    0.66441399   -1.88071001
 O          2.06910110   -1.07509601   -0.43294999
 H          1.08133101   -0.52209800    1.28577495
 C          2.11125207   -2.45316410   -0.05592900
 H          2.98949909   -2.88255191   -0.53626800
 H          1.21465099   -2.97869992   -0.39229101
 H          2.20477605   -2.54480910    1.03135097
