27
wb97x-d4 ma-def2-tzvp(-f) cpcm(dmso) E: -727.026763234435, G: -726.83572735
 C         -1.22775495   -0.05682800    0.34457999
 C         -1.12862694    1.42467701   -0.01296500
 O         -0.17590600   -0.78611898   -0.29632801
 C         -2.53173709   -0.69270998   -0.09269800
 H         -1.12636197   -0.15897700    1.43281996
 C          1.10244799   -0.38798100    0.17219000
 C          1.36978996    1.07693005   -0.16480000
 C          0.25462699    1.96487701    0.38710701
 H          2.32192993    1.37204504    0.28844401
 O          1.40360796    1.26991999   -1.57728100
 O          0.41318399    1.97868800    1.80067003
 H          0.37328500    2.97059298   -0.03011500
 O         -1.38016796    1.66499603   -1.39250803
 H         -1.89319301    1.97142696    0.54721999
 H         -3.36595106   -0.14458300    0.34983400
 O         -2.63613009   -2.04212499    0.35854399
 H         -2.61859012   -0.64312297   -1.18207800
 H         -1.88606405   -2.52527690   -0.00938200
 H         -0.58518398    1.39205694   -1.87564695
 H         -0.20932899    2.61733794    2.16759992
 H          1.93263996    0.55506003   -1.95574200
 O          2.06626391   -1.14936197   -0.47852001
 H          1.15108395   -0.53822201    1.26083803
 C          2.08052707   -2.52234411   -0.08150500
 H          1.16026902   -3.02708912   -0.38409600
 H          2.20307708   -2.60067797    1.00392604
 H          2.93226290   -2.98318791   -0.58011001
