27
wb97x-d4 ma-def2-tzvp(-f) cpcm(dmso) E: -727.024346226339, G: -726.8327764
 C         -1.38587797   -0.12479200    0.73484802
 C         -1.16739702    1.37490296    0.52953798
 O         -0.21174900   -0.73781598    1.29784501
 C         -1.87463200   -0.85455698   -0.51283097
 H         -2.14388394   -0.25871700    1.51016998
 C          1.03180802   -0.48808900    0.67395198
 C          1.26995397    1.00506902    0.44859299
 C          0.09186000    1.64073396   -0.27453199
 H          1.37408996    1.48293805    1.42586803
 O          2.49083495    1.22417700   -0.24018900
 O          0.24368501    3.05412793   -0.36143699
 H         -0.00443400    1.21592498   -1.28050196
 O         -2.32331896    1.90951598   -0.10273400
 H         -1.03550303    1.83706295    1.51634502
 H         -2.83830595   -0.43709800   -0.80343097
 O         -2.09335804   -2.23558593   -0.23474801
 H         -1.17713201   -0.73741198   -1.34504199
 H         -1.29133606   -2.57759500    0.17752799
 H         -2.16392589    2.85227108   -0.23514000
 H          1.03278196    3.23285198   -0.88736999
 H          2.49963808    0.61905599   -0.99527198
 O          1.16131902   -1.13026905   -0.56923199
 H          1.77733195   -0.88057899    1.37240803
 C          1.59943998   -2.48586202   -0.47027600
 H          0.94383001   -3.06983709    0.18249400
 H          2.62181306   -2.52672005   -0.08102100
 H          1.57247102   -2.90370202   -1.47583199
