27
wb97x-d4 ma-def2-tzvp(-f) cpcm(dmso) E: -727.023642360938, G: -726.8323391399999
 C         -1.27807498   -0.20259200    0.69598299
 C         -1.13222206    1.31030703    0.50739902
 O         -0.09110300   -0.73770100    1.29888201
 C         -1.70808899   -0.94583797   -0.56817102
 H         -2.05325294   -0.37189499    1.44922900
 C          1.14974701   -0.43539500    0.69676298
 C          1.32583702    1.06779206    0.48197699
 C          0.13133401    1.64608705   -0.26489401
 H          1.38487899    1.54668498    1.46231496
 O          2.54819894    1.35318398   -0.18072601
 O          0.21221100    3.06637406   -0.34186700
 H          0.08057500    1.22246802   -1.27489197
 O         -2.29846597    1.80287802   -0.14005400
 H         -1.04140604    1.76445496    1.50254595
 H         -2.61646390   -0.47242001   -0.94899702
 O         -1.93421495   -2.33143091   -0.31062201
 H         -0.94158697   -0.89809000   -1.33871102
 H         -2.70795989   -2.40688491    0.26011801
 H         -2.18975091    2.75719309   -0.23383300
 H          1.01387203    3.28838205   -0.83114898
 H          2.60877800    0.74902898   -0.93387800
 O          1.33856404   -1.05012596   -0.54995102
 H          1.89653397   -0.80667299    1.40703797
 C          1.53464997   -2.46137905   -0.46614599
 H          2.38482904   -2.68841100    0.18637900
 H          1.74618399   -2.81128693   -1.47614503
 H          0.63639802   -2.95470905   -0.08859200
