27
wb97x-d4 ma-def2-tzvp(-f) cpcm(dmso) E: -727.024808972052, G: -726.8323034499999
 C         -1.17536700   -0.35566300    0.79201001
 C         -1.13718498    1.14906096    0.51805103
 O          0.06624600   -0.77440101    1.37271905
 C         -1.59267902   -1.19420302   -0.42409301
 H         -1.91695499   -0.54796100    1.57092905
 C          1.24632800   -0.43095100    0.68018800
 C          1.33708000    1.07164800    0.39828500
 C          0.07565300    1.54184604   -0.31714401
 H          1.41284204    1.59019101    1.35866904
 O          2.52316689    1.37188303   -0.31537700
 O          0.06815000    2.94567800   -0.56075102
 H          0.01542800    1.07792103   -1.30441904
 O         -2.34760308    1.51363397   -0.13946199
 H         -1.06746495    1.67290497    1.48110998
 H         -1.08916295   -0.86702299   -1.33676898
 O         -3.00893211   -1.16107202   -0.59697098
 H         -1.32164896   -2.23393893   -0.23664600
 H         -3.24290705   -0.23216400   -0.72949398
 H         -2.22911501    2.40915298   -0.48223501
 H          0.22940300    3.40252304    0.27563900
 H          2.56195092    0.76667899   -1.06862998
 O          1.36413801   -1.08351505   -0.55621099
 H          2.06026793   -0.73760599    1.34517705
 C          1.72221506   -2.46056104   -0.44228199
 H          1.77878702   -2.85818505   -1.45486498
 H          0.97072798   -3.01558399    0.12527500
 H          2.69663501   -2.56029606    0.04729700
