27
wb97x-d4 ma-def2-tzvp(-f) cpcm(dmso) E: -727.023318492724, G: -726.83228304
 C         -1.12692797   -0.37843901    0.88342601
 C         -1.13136601    1.12675405    0.60173303
 O          0.16261400   -0.78756702    1.35703301
 C         -1.64331102   -1.22822404   -0.28683299
 H         -1.79804206   -0.57007402    1.72388995
 C          1.27592194   -0.44727400    0.54808801
 C          1.31770205    1.06513405    0.30931500
 C          0.01274600    1.53019905   -0.31093699
 H          1.42777300    1.54532003    1.28784800
 O          2.37909007    1.45003104   -0.55052900
 O         -0.04009800    2.94973898   -0.42637101
 H         -0.11001700    1.07331097   -1.29866302
 O         -2.39230299    1.46702194    0.02987300
 H         -1.00174296    1.65856504    1.55238497
 H         -1.22581196   -0.90186501   -1.24190605
 O         -3.06973290   -1.21186197   -0.33373699
 H         -1.34572101   -2.26375198   -0.11835800
 H         -3.32521391   -0.28784800   -0.45919901
 H         -2.33897209    2.38318992   -0.26978701
 H          0.63757801    3.22084093   -1.05698299
 H          3.19847488    1.46235597   -0.04277300
 O          1.26703799   -1.10206294   -0.68592101
 H          2.14603090   -0.76130599    1.13584495
 C          1.61319399   -2.48257494   -0.59350598
 H          0.91269702   -3.02613401    0.04628400
 H          2.62818789   -2.59457302   -0.19671801
 H          1.57021296   -2.88890600   -1.60350096
