27
wb97x-d4 ma-def2-tzvp(-f) cpcm(dmso) E: -727.022910222274, G: -726.8319269
 C         -1.16110504   -0.17065300    0.56307501
 C         -1.18681300    1.32246494    0.23413301
 O         -0.16339600   -0.84092999   -0.21309599
 C         -2.46335411   -0.93196201    0.35086200
 H         -0.90912700   -0.25577599    1.62881303
 C          1.14491796   -0.36977401    0.07316900
 C          1.27880502    1.10936797   -0.27402401
 C          0.21207900    1.92437696    0.45593399
 H          2.27086997    1.45131195    0.03951600
 O          1.09229600    1.31787300   -1.67147899
 O          0.57184100    1.91313601    1.83275294
 H          0.21999300    2.94465804    0.05791100
 O         -1.64489901    1.61918795   -1.07685006
 H         -1.88495505    1.80549002    0.92485201
 H         -2.39675808   -1.87972796    0.89834899
 O         -2.77123499   -1.18591201   -1.01496696
 H         -3.29097700   -0.35416600    0.76791698
 H         -1.97585905   -1.55046999   -1.42197800
 H         -0.94223201    1.35473394   -1.68870604
 H         -0.02541400    2.50477290    2.30524397
 H          1.60957599    0.64812398   -2.13789511
 O          2.04684305   -1.07009804   -0.71852398
 H          1.35604501   -0.52514303    1.14121902
 C          2.21195698   -2.43620992   -0.33153999
 H          1.28648400   -2.99845505   -0.47452900
 H          2.52064490   -2.49685311    0.71740401
 H          2.99377704   -2.84936905   -0.96756399
