27
wb97x-d4 ma-def2-tzvp(-f) cpcm(dmso) E: -727.023821685107, G: -726.8317805199999
 C         -1.21795595   -0.34374800    0.94776398
 C         -1.21068704    1.16491401    0.68746501
 O          0.09759300   -0.78868902    1.32811606
 C         -1.88012004   -1.20698702   -0.12563699
 H         -1.81205106   -0.51706702    1.84918201
 C          1.18275297   -0.43599999    0.50018197
 C          1.22277403    1.07699203    0.26355800
 C         -0.10503700    1.58931303   -0.26586300
 H          1.39738905    1.54047000    1.24116802
 O          2.24078488    1.45797396   -0.64865601
 O         -0.12387200    3.01556611   -0.29766500
 H         -0.29265201    1.19410098   -1.26729202
 O         -2.49616098    1.54228103    0.21402800
 H         -1.01082397    1.66229701    1.64573598
 H         -1.72307897   -2.25450206    0.16179700
 O         -1.47616506   -0.98513800   -1.46885502
 H         -2.95192695   -1.00627005   -0.08858400
 H         -0.50968099   -1.08066905   -1.49163401
 H         -2.48483396    2.49997807    0.09569400
 H          0.53228301    3.30360293   -0.94336998
 H          3.08850002    1.44487202   -0.18955900
 O          1.16765904   -1.10629797   -0.73784602
 H          2.07015204   -0.74761403    1.06096697
 C          1.50772202   -2.49280190   -0.62770498
 H          2.50424004   -2.60045600   -0.18912300
 H          1.50603902   -2.89845610   -1.63862300
 H          0.77715802   -3.02766204   -0.01524300
