27
wb97x-d4 ma-def2-tzvp(-f) cpcm(dmso) E: -727.022121265735, G: -726.83121158
 C         -1.24551702   -0.08295100    0.67519498
 C         -0.98209900    1.41743302    0.49307001
 O         -0.11418900   -0.69193900    1.31612206
 C         -1.68758297   -0.78623903   -0.59937900
 H         -2.05255795   -0.20249499    1.40357900
 C          1.15527701   -0.47886699    0.73933297
 C          1.45160794    1.00476003    0.50094497
 C          0.31436601    1.66916704   -0.26107299
 H          1.53779495    1.49155498    1.47565198
 O          2.70732498    1.15900195   -0.13890500
 O          0.58112001    3.06454396   -0.33801299
 H          0.24685299    1.24784505   -1.27200496
 O         -2.02683592    2.07319307   -0.22015500
 H         -0.87839699    1.86316001    1.48887002
 H         -2.55454493   -0.24718501   -0.99123400
 O         -2.04430604   -2.12685394   -0.25673199
 H         -0.89858598   -0.78087401   -1.35307205
 H         -2.32152390   -2.57311893   -1.06428695
 H         -2.74747801    2.25973606    0.39225799
 H         -0.22374199    3.48236704   -0.67046303
 H          2.72400999    0.53609502   -0.87851501
 O          1.32983899   -1.13369799   -0.48996699
 H          1.86179399   -0.88304502    1.47247303
 C          1.44175100   -2.55092812   -0.36821401
 H          1.65130496   -2.93854094   -1.36480796
 H          0.50923902   -2.98170590    0.00285900
 H          2.26507902   -2.81041598    0.30646700
