27
wb97x-d4 ma-def2-tzvp(-f) cpcm(dmso) E: -727.027136077331, G: -726.8347318
 C         -1.14030099   -0.29847801    0.50108200
 C         -1.21006501    1.19421303    0.17277101
 O         -0.07346400   -0.91057599   -0.22515500
 C         -2.42629290   -1.05362701    0.20707700
 H         -0.95164198   -0.39079300    1.57925904
 C          1.18968904   -0.38270000    0.14601400
 C          1.28198004    1.10395598   -0.18528099
 C          0.13642099    1.86797404    0.47620901
 H          2.23686695    1.48708904    0.18886600
 O          1.17069805    1.31676900   -1.59137201
 O          0.40353900    1.87318206    1.87243104
 H          0.11967600    2.88745403    0.07594100
 O         -1.58704400    1.43151999   -1.18710995
 H         -1.98305702    1.65213001    0.79646599
 H         -2.30762601   -2.09282804    0.52208602
 O         -2.78819704   -1.07578599   -1.16964698
 H         -3.22268295   -0.60242897    0.81310099
 H         -2.61898088   -0.18317200   -1.50914800
 H         -0.78850400    1.30578601   -1.72620702
 H         -0.24066401    2.44888210    2.30113411
 H          1.71298003    0.64947301   -2.03288102
 O          2.17131710   -1.03424799   -0.59188598
 H          1.34250998   -0.53571600    1.22469497
 C          2.34909105   -2.40512490   -0.22853100
 H          3.19763803   -2.77351308   -0.80361497
 H          1.45985305   -2.99228907   -0.46798801
 H          2.56626105   -2.48714590    0.84168798
