27
wb97x-d4 ma-def2-tzvp(-f) cpcm(dmso) E: -727.022609153763, G: -726.83091613
 C         -1.08807099   -0.22776499    0.83377999
 C         -0.96759599    1.27795196    0.56895202
 O          0.14761201   -0.73803699    1.34980500
 C         -1.59990203   -1.04348803   -0.36307400
 H         -1.80325699   -0.37424701    1.64861703
 C          1.31603301   -0.48484999    0.58612800
 C          1.47085094    1.01156604    0.32700601
 C          0.22384501    1.56930196   -0.33460200
 H          1.57683599    1.49135995    1.30819297
 O          2.64091611    1.22820699   -0.44511801
 O          0.42234999    2.97217894   -0.48672900
 H          0.08210200    1.10859799   -1.31832302
 O         -2.15989804    1.84462500    0.03543700
 H         -0.78168899    1.77497005    1.52679598
 H         -1.05277598   -0.82396501   -1.27715003
 O         -2.97097802   -0.72263002   -0.63659400
 H         -1.48864102   -2.10735703   -0.13900600
 H         -3.51606011   -1.06116498    0.08494000
 H         -2.66092300    1.13760102   -0.40369600
 H         -0.36849099    3.33257198   -0.90616602
 H          2.69341302    2.17686510   -0.61571902
 O          1.32061994   -1.16492701   -0.63432300
 H          2.13635206   -0.84176302    1.21787500
 C          1.55896294   -2.56471992   -0.49689999
 H          0.77277303   -3.04556704    0.09139000
 H          2.52905202   -2.74066305   -0.01934900
 H          1.56656599   -2.98465490   -1.50216901
