27
wb97x-d4 ma-def2-tzvp(-f) cpcm(dmso) E: -727.023461784177, G: -726.83085023
 C         -1.19622803   -0.08040200    0.88276798
 C         -1.08621204    0.90901601   -0.27532601
 O         -0.07921900   -0.98478502    0.93052602
 C         -2.47030997   -0.91054899    0.86427200
 H         -1.21809494    0.50970602    1.80904305
 C          1.16028702   -0.47376800    0.50389701
 C          1.24216104    1.03366494    0.70809799
 C          0.19906500    1.74585700   -0.15765999
 H          1.01945603    1.23539901    1.75842595
 O          2.55192804    1.52863002    0.48226401
 O         -0.14271501    3.01345706    0.39497700
 H          0.60722399    1.87675095   -1.16595101
 O         -1.17059302    0.26029801   -1.54706299
 H         -1.93885601    1.58821201   -0.22000401
 H         -2.48573995   -1.55467701    1.74638700
 O         -2.59890294   -1.75797200   -0.27107000
 H         -3.31823802   -0.21721201    0.93408501
 H         -2.31760192   -1.23409605   -1.03708100
 H         -0.32939699   -0.21073300   -1.67206895
 H          0.67045701    3.52679205    0.48220500
 H          2.80033994    1.30648994   -0.42498800
 O          1.38280594   -0.71829301   -0.87322903
 H          1.92858005   -0.99160701    1.08612001
 C          1.64428699   -2.09339309   -1.16927302
 H          1.86970603   -2.14974499   -2.23346710
 H          0.77162600   -2.71193600   -0.94513297
 H          2.50418401   -2.44510388   -0.59075600
