27
wb97x-d4 ma-def2-tzvp(-f) cpcm(dmso) E: -727.022045527411, G: -726.8304492899999
 C         -1.09844196   -0.22789900    0.87983900
 C         -0.95854700    1.28055203    0.64267898
 O          0.13229001   -0.75868100    1.38407099
 C         -1.61624002   -1.01686001   -0.32699499
 H         -1.81715298   -0.38188499    1.68888605
 C          1.30209303   -0.50935102    0.62067300
 C          1.47292101    0.98798901    0.37394899
 C          0.22725999    1.57010198   -0.26900101
 H          1.59396398    1.45632696    1.35885298
 O          2.63918495    1.19656801   -0.40619901
 O          0.43947801    2.97262406   -0.40402400
 H          0.07102400    1.12424099   -1.25745904
 O         -2.14777708    1.87693596    0.13709199
 H         -0.75220501    1.75398803    1.60824704
 H         -1.06535399   -0.78659898   -1.23910296
 O         -3.00052404   -0.66372299   -0.48404199
 H         -1.51599801   -2.08470988   -0.11418200
 H         -3.30311704   -1.00188005   -1.33478403
 H         -2.66110301    1.18710899   -0.31545001
 H         -0.36331999    3.34983110   -0.78447402
 H          2.71491694    2.14766192   -0.55213398
 O          1.30013895   -1.18076801   -0.60429299
 H          2.11947107   -0.87836999    1.24926400
 C          1.52618301   -2.58355403   -0.47627401
 H          2.49304390   -2.77140689    0.00335900
 H          1.53386199   -2.99640298   -1.48447597
 H          0.73394901   -3.06184006    0.10598000
