27
wb97x-d4 ma-def2-tzvp(-f) cpcm(dmso) E: -727.021507618055, G: -726.83043601
 C         -1.24437797    0.05772100    0.59332401
 C         -0.92255902    0.99443299   -0.56673199
 O         -0.21539000   -0.93209499    0.79521000
 C         -2.54070401   -0.70455498    0.40334699
 H         -1.32585001    0.66543001    1.50354695
 C          1.10583103   -0.54665899    0.49304599
 C          1.28330898    0.95101303    0.68286300
 C          0.40931499    1.72977602   -0.29654300
 H          0.93739998    1.17976403    1.69782698
 O          2.66102409    1.26483405    0.55748200
 O          0.20850299    3.01197600    0.29477799
 H          0.94031602    1.83015001   -1.24782002
 O         -0.90984797    0.32327601   -1.82097006
 H         -1.71674502    1.74242306   -0.62492400
 H         -3.35629892    0.00787600    0.26230201
 O         -2.86937308   -1.48418498    1.55176401
 H         -2.46787310   -1.33822894   -0.48531401
 H         -2.16995811   -2.13866901    1.66659296
 H         -0.13071200   -0.25580499   -1.81771398
 H         -0.15076099    3.60333705   -0.37729299
 H          2.76989198    2.19662189    0.78275698
 O          1.44570899   -0.87379998   -0.83807701
 H          1.75567305   -1.10386801    1.17479205
 C          1.59263897   -2.28068995   -1.04727602
 H          0.64243799   -2.79984188   -0.89696503
 H          2.34497809   -2.68660402   -0.36341599
 H          1.92342603   -2.41363311   -2.07658696
