27
wb97x-d4 ma-def2-tzvp(-f) cpcm(dmso) E: -727.021508189663, G: -726.83013409
 C         -1.24079704   -0.17876700    0.58637202
 C         -1.00260103    0.82542503   -0.53583503
 O         -0.11590300   -1.05650795    0.77003700
 C         -2.44020295   -1.08659697    0.34766901
 H         -1.40680099    0.38861799    1.51239896
 C          1.15847003   -0.49697599    0.55608797
 C          1.15473700    1.00874698    0.78486502
 C          0.21522599    1.70670402   -0.20404600
 H          0.78526002    1.18533194    1.79777801
 O          2.46775293    1.54417598    0.74490303
 O         -0.26123199    2.93732595    0.33497399
 H          0.75957203    1.89269102   -1.13633096
 O         -0.86729002    0.19297700   -1.80207503
 H         -1.87857795    1.47187495   -0.60194999
 H         -2.33182907   -1.58916998   -0.61401498
 O         -3.65529299   -0.34657100    0.29546800
 H         -2.47290492   -1.84518194    1.13640201
 H         -3.85878992   -0.03363700    1.18467796
 H         -0.02681500   -0.29128599   -1.78463197
 H          0.50525999    3.47645211    0.56695598
 H          2.85072088    1.31632304   -0.11268200
 O          1.60918605   -0.71532601   -0.76751602
 H          1.83998406   -0.99628502    1.25189400
 C          1.97847199   -2.07383609   -1.02129805
 H          2.37111211   -2.11018705   -2.03660107
 H          1.11152506   -2.73436403   -0.93862498
 H          2.75175691   -2.39195609   -0.31487700
