27
wb97x-d4 ma-def2-tzvp(-f) cpcm(dmso) E: -727.021117875838, G: -726.83008245
 C         -1.29191697    0.02062400    0.51203501
 C         -0.92228401    0.97380501   -0.61991298
 O         -0.24634100   -0.93607599    0.77136803
 C         -2.55927205   -0.75238699    0.22319600
 H         -1.45257401    0.62082601    1.41707802
 C          1.07445395   -0.48058999    0.60856903
 C          1.17691100    1.02597904    0.80139202
 C          0.34910899    1.76196504   -0.25620699
 H          0.76979297    1.26108301    1.78748906
 O          2.52712202    1.46028197    0.81778401
 O         -0.04674000    3.04719710    0.21645100
 H          0.95072901    1.86768401   -1.16550100
 O         -0.79181600    0.29856300   -1.86488104
 H         -1.73596799    1.69152999   -0.73944998
 H         -3.32417488   -0.04839200   -0.12449800
 O         -2.98177695   -1.39613402    1.42627394
 H         -2.37045503   -1.48694599   -0.56449097
 H         -3.72460794   -1.97043705    1.21047795
 H          0.00795400   -0.24746899   -1.80311704
 H          0.75138700    3.52927303    0.46706501
 H          2.93595409    1.17452502   -0.01014200
 O          1.56839895   -0.76388502   -0.68832499
 H          1.68438804   -1.01235795    1.34570706
 C          1.85355103   -2.15002799   -0.89446700
 H          2.27388000   -2.24080801   -1.89523101
 H          0.94225103   -2.74930596   -0.82313699
 H          2.58204699   -2.49851990   -0.15552700
