27
wb97x-d4 ma-def2-tzvp(-f) cpcm(dmso) E: -727.025787985418, G: -726.83462404
 C         -1.19584596   -0.10740400    0.25531900
 C         -1.10938704    1.37706494   -0.09771300
 O         -0.10810400   -0.81432599   -0.34400901
 C         -2.48965693   -0.73852301   -0.22397000
 H         -1.13364804   -0.20302700    1.34864795
 C          1.14388502   -0.38930899    0.16695400
 C          1.39776099    1.07859802   -0.16530800
 C          0.24815500    1.94605196    0.34551901
 H          2.32854509    1.39212799    0.31888199
 O          1.47523499    1.26875305   -1.57656705
 O          0.35809901    1.96748996    1.76372302
 H          0.36063799    2.95264006   -0.07143200
 O         -1.32168496    1.60722494   -1.48583496
 H         -1.90203297    1.91027105    0.43549699
 H         -3.32594109   -0.09749500    0.07739900
 O         -2.66799688   -2.06676006    0.26350400
 H         -2.48306704   -0.80655903   -1.31211495
 H         -2.78128910   -2.02205491    1.22021306
 H         -0.50658703    1.34698606   -1.94160199
 H         -0.28546000    2.59850502    2.10682988
 H          2.02464294    0.55911499   -1.93536103
 O          2.14509892   -1.13488805   -0.44611299
 H          1.15866601   -0.53489703    1.25751305
 C          2.15473509   -2.51092410   -0.05993400
 H          2.20967388   -2.59721804    1.03047597
 H          3.04283190   -2.95544600   -0.50738299
 H          1.26273406   -3.02600002   -0.42313701
