27
wb97x-d4 ma-def2-tzvp(-f) cpcm(dmso) E: -727.020869151949, G: -726.8299839499999
 C         -1.16636896   -0.12766901    0.73726302
 C         -1.01808596    0.85770297   -0.41768000
 O         -0.03688100   -1.01154304    0.84392601
 C         -2.37959409   -1.03222096    0.61406100
 H         -1.25487900    0.45478800    1.66343105
 C          1.21737897   -0.47255400    0.49941599
 C          1.25195205    1.03678203    0.70105499
 C          0.23658700    1.72676206   -0.21526800
 H          0.97525698    1.23575997    1.73907804
 O          2.56167102    1.55656195    0.53644902
 O         -0.17168100    2.97795701    0.33267301
 H          0.69734502    1.88254595   -1.19680500
 O         -1.01160204    0.20902400   -1.68290198
 H         -1.88700902    1.51655698   -0.41115800
 H         -2.33723807   -1.57154596   -0.33645400
 O         -3.54312801   -0.21116100    0.68756199
 H         -2.35973406   -1.75724196    1.43491304
 H         -4.31217718   -0.76904500    0.52880800
 H         -0.18156999   -0.28977099   -1.73855102
 H          0.62013900    3.51146603    0.47597799
 H          2.86162901    1.32360399   -0.35235900
 O          1.53831899   -0.71841902   -0.85639203
 H          1.95541894   -0.96971798    1.13643301
 C          1.86933398   -2.08430696   -1.12147605
 H          1.00826395   -2.73433399   -0.94626403
 H          2.70360994   -2.39963794   -0.48683301
 H          2.16304302   -2.14034009   -2.16890311
