27
wb97x-d4 ma-def2-tzvp(-f) cpcm(dmso) E: -727.021429943111, G: -726.82986908
 C         -1.16998196   -0.16519900    0.78826803
 C         -1.05288196    0.81751603   -0.37191200
 O         -0.02021000   -1.02472997    0.89114398
 C         -2.36456299   -1.10532403    0.67764503
 H         -1.26491904    0.41929901    1.71233296
 C          1.21825194   -0.47209999    0.51432002
 C          1.23422098    1.03881097    0.70348603
 C          0.19372600    1.70475197   -0.20126501
 H          0.97144502    1.24168897    1.74436796
 O          2.53245401    1.57853699    0.51301497
 O         -0.22127900    2.95685601    0.33932301
 H          0.63427699    1.85470104   -1.19290698
 O         -1.06808901    0.16314401   -1.63477504
 H         -1.92639804    1.47180295   -0.35205099
 H         -2.28226995   -1.69513905   -0.23889799
 O         -3.60033298   -0.39908201    0.72705698
 H         -2.35003090   -1.78654599    1.53076804
 H         -3.79834199   -0.06590000   -0.15519901
 H         -0.23570700   -0.33008099   -1.70456302
 H          0.56639999    3.50103211    0.46447301
 H          2.81878996    1.34936404   -0.38127899
 O          1.51242304   -0.72502702   -0.84636599
 H          1.97700703   -0.95347899    1.13901603
 C          1.85522199   -2.08868003   -1.10768497
 H          2.70441103   -2.38941598   -0.48587099
 H          2.13102508   -2.14903998   -2.15974903
 H          1.00535202   -2.74776006   -0.91269702
