27
wb97x-d4 ma-def2-tzvp(-f) cpcm(dmso) E: -727.022559519442, G: -726.82982987
 C         -1.08435404   -0.07778500    0.96718597
 C         -1.12786996    0.89381802   -0.21116100
 O          0.05774300   -0.95137000    0.92073601
 C         -2.32877588   -0.94334298    1.09438002
 H         -1.02824497    0.53103399    1.87959301
 C          1.21664500   -0.43983701    0.30450401
 C          1.29135501    1.07322395    0.48401400
 C          0.14684699    1.75367200   -0.25993299
 H          1.17257905    1.27032197    1.55513406
 O          2.51264811    1.62425900    0.01574500
 O         -0.14873300    3.02424002    0.31319100
 H          0.43590000    1.87499106   -1.30884802
 O         -1.35426998    0.22600600   -1.45486295
 H         -1.97852099    1.56099606   -0.06123900
 H         -2.23732400   -1.56566203    1.98739505
 O         -2.54179502   -1.82246304   -0.00372500
 H         -3.18710208   -0.27327701    1.23272705
 H         -2.37220907   -1.30285096   -0.80476898
 H         -0.52349102   -0.23200800   -1.67096996
 H          0.66479999    3.54428196    0.30938101
 H          3.20578194    1.42515004    0.65629202
 O          1.24113202   -0.73071802   -1.07850897
 H          2.06478000   -0.93623197    0.78816700
 C          1.43601704   -2.12124991   -1.35200000
 H          0.59893799   -2.71385002   -0.97451800
 H          2.36781311   -2.46719289   -0.89335501
 H          1.49971104   -2.22415304   -2.43455505
