27
wb97x-d4 ma-def2-tzvp(-f) cpcm(dmso) E: -727.022731281349, G: -726.82967714
 C         -1.12780905   -0.00882900    0.90598297
 C         -1.05080104    0.92887402   -0.29687899
 O         -0.01670400   -0.91985601    0.95404601
 C         -2.40826797   -0.82668698    0.96808398
 H         -1.11085498    0.61937100    1.80751896
 C          1.20581496   -0.44747001    0.44497699
 C          1.32864201    1.06697798    0.57395101
 C          0.24486201    1.76892304   -0.25226399
 H          1.17954397    1.31299102    1.62937796
 O          2.63481092    1.50861800    0.24892700
 O          0.01992000    3.09206104    0.22068900
 H          0.59849000    1.88395500   -1.27915704
 O         -1.17949104    0.22631501   -1.53620803
 H         -1.89856005    1.61473894   -0.24601300
 H         -2.39833999   -1.43395400    1.87604797
 O         -2.58244705   -1.71849597   -0.12670100
 H         -3.24786711   -0.12327400    1.03770804
 H         -2.32122898   -1.22930396   -0.92242801
 H         -0.34503099   -0.25648600   -1.66579902
 H         -0.22285500    3.05117202    1.15441799
 H          2.81970191    1.23456299   -0.65907699
 O          1.36037004   -0.75714099   -0.92900997
 H          1.99390697   -0.95162898    1.01235402
 C          1.58543396   -2.14893603   -1.17412305
 H          2.47051811   -2.48778701   -0.62700200
 H          1.75113702   -2.25782108   -2.24516296
 H          0.71710801   -2.74089098   -0.87425798
