27
wb97x-d4 ma-def2-tzvp(-f) cpcm(dmso) E: -727.021444830777, G: -726.82963181
 C         -1.10868299   -0.41895401    1.01173306
 C         -1.16666901    1.08409297    0.72037703
 O          0.22189200   -0.82552701    1.36885297
 C         -1.78737700   -1.30077505   -0.04594700
 H         -1.67027402   -0.59600300    1.93238401
 C          1.30634296   -0.40026799    0.57623398
 C          1.28604805    1.11096501    0.35932800
 C         -0.05614900    1.54460204   -0.20919199
 H          1.43294406    1.59589100    1.32766902
 O          2.36271095    1.52552497   -0.46863401
 O         -0.15192699    2.96630406   -0.28223899
 H         -0.18960799    1.10802698   -1.20257294
 O         -2.45653200    1.36591303    0.17967901
 H         -1.03945804    1.62338698    1.66710496
 H         -1.37197399   -2.30660605    0.03609800
 O         -1.64741504   -0.89484102   -1.40180802
 H         -2.85022902   -1.35575604    0.21152100
 H         -2.15429711   -0.07804000   -1.49379098
 H         -2.49439502    2.31506610    0.00773500
 H          0.52341902    3.27447295   -0.89850700
 H          2.38023305    0.92729700   -1.22854495
 O          1.34882796   -0.99942201   -0.68959397
 H          2.19327307   -0.68893403    1.15135396
 C          1.70257998   -2.37946010   -0.65387303
 H          0.94027102   -2.96742797   -0.13589300
 H          2.66720891   -2.51460290   -0.15192100
 H          1.77923501   -2.71492505   -1.68755400
