27
wb97x-d4 ma-def2-tzvp(-f) cpcm(dmso) E: -727.020433384699, G: -726.82910622
 C         -1.13546503   -0.16051599    0.74697101
 C         -0.95175898    0.83039099   -0.39816001
 O         -0.01561100   -1.05543399    0.88312602
 C         -2.35433197   -1.06166899    0.58858001
 H         -1.24296999    0.41938701    1.67243099
 C          1.24743700   -0.55765700    0.50561702
 C          1.31752706    0.94388598    0.72678500
 C          0.32678199    1.66953099   -0.17821699
 H          1.01468599    1.11920202    1.76588202
 O          2.65615392    1.37158597    0.53166997
 O          0.05138600    2.91416192    0.46189699
 H          0.79248101    1.83981097   -1.15341699
 O         -0.95908898    0.19701500   -1.67165196
 H         -1.80334306    1.51417994   -0.38982001
 H         -2.26004601   -1.64619195   -0.33024400
 O         -3.56787801   -0.31602100    0.60292101
 H         -2.39079809   -1.74989903    1.43536103
 H         -3.72084594    0.03582200   -0.28110701
 H         -0.14244400   -0.32471201   -1.72627604
 H         -0.39392501    3.48946404   -0.17151000
 H          2.70463300    2.30257607    0.78040200
 O          1.52641904   -0.82501203   -0.85290301
 H          1.98162603   -1.07643604    1.12954402
 C          1.77753699   -2.20885301   -1.11113000
 H          2.05575800   -2.28824306   -2.16133189
 H          0.88509101   -2.81076789   -0.92125899
 H          2.60099196   -2.56560302   -0.48415700
