27
wb97x-d4 ma-def2-tzvp(-f) cpcm(dmso) E: -727.021670904888, G: -726.82854994
 C         -1.20933902   -0.09446800    0.71709502
 C         -1.06472003    1.25294101    0.00855400
 O         -0.16556600   -0.98815900    0.33185399
 C         -2.53314900   -0.79087400    0.45422301
 H         -1.15125299    0.09751500    1.79714596
 C          1.11299205   -0.48219201    0.70440900
 C          1.41450906    0.81020099   -0.06342400
 C          0.32266900    1.84456396    0.26772001
 H          2.38237190    1.18683100    0.28130001
 O          1.50454199    0.63110399   -1.46810603
 O          0.36147100    2.22948599    1.63603604
 H          0.45911601    2.71239805   -0.38672900
 O         -1.20440900    1.13767099   -1.41061604
 H         -1.82078195    1.93701196    0.41081399
 H         -2.58340502   -1.70832098    1.04703200
 O         -2.73988891   -1.08801401   -0.93308502
 H         -3.34884501   -0.13175000    0.75733900
 H         -2.14671397   -1.81086802   -1.17306805
 H         -1.84896600    0.42760599   -1.57707298
 H          1.17809403    2.71885300    1.78983796
 H          0.59301198    0.61870402   -1.80410504
 O          2.05687404   -1.49959302    0.59359902
 H          1.09556997   -0.23329300    1.77199399
 C          2.28411508   -2.07164097   -0.70027000
 H          1.34584796   -2.23453689   -1.23277104
 H          2.76759911   -3.03212905   -0.51841402
 H          2.93825102   -1.43904305   -1.30129004
