27
wb97x-d4 ma-def2-tzvp(-f) cpcm(dmso) E: -727.021603613213, G: -726.82851757
 C         -1.16747999   -0.04482700    0.71629298
 C         -0.98562503    1.27163994   -0.03901000
 O         -0.14501300   -0.97844601    0.37007600
 C         -2.50706005   -0.71773100    0.47198999
 H         -1.10851598    0.18519700    1.78882802
 C          1.14541996   -0.49301699    0.72695500
 C          1.48151398    0.76416802   -0.08486700
 C          0.42105600    1.83608305    0.20401800
 H          2.45623302    1.13011205    0.24775200
 O          1.56561601    0.52812898   -1.48116302
 O          0.57592100    2.24772906    1.55668700
 H          0.58635700    2.67463708   -0.48105901
 O         -1.12954199    1.11395204   -1.45393097
 H         -1.72714400    1.98766005    0.33789599
 H         -2.58284593   -1.61197996    1.09671700
 O         -2.71523809   -1.05914104   -0.90487200
 H         -3.30769706   -0.02851200    0.74712199
 H         -2.13818693   -1.80377495   -1.11583996
 H         -1.79309404    0.41645500   -1.59780300
 H          0.00599400    3.01108408    1.70881999
 H          0.65381497    0.51775301   -1.81631005
 O          2.06327605   -1.53653705    0.64702100
 H          1.13575196   -0.21037900    1.78641605
 C          2.26048803   -2.16648293   -0.62475199
 H          2.70541000   -3.13838506   -0.40798101
 H          2.93672800   -1.58428502   -1.25174403
 H          1.31386197   -2.31110311   -1.14725804
