27
wb97x-d4 ma-def2-tzvp(-f) cpcm(dmso) E: -727.027179214684, G: -726.83450941
 C         -1.12063003   -0.20962299    0.46810600
 C         -1.11489904    1.29765499    0.20638300
 O         -0.09373700   -0.85383999   -0.28382400
 C         -2.43431997   -0.88985300    0.12257300
 H         -0.94636500   -0.35824800    1.54227901
 C          1.20135796   -0.39556900    0.09649100
 C          1.36095798    1.08832395   -0.22808900
 C          0.26624399    1.88443398    0.50313801
 H          2.34076095    1.41133499    0.13565500
 O          1.32454395    1.34283102   -1.62346494
 O          0.44558600    1.83471596    1.91346002
 H          0.29022500    2.91844296    0.14244699
 O         -1.40611899    1.61353695   -1.15798402
 H         -1.84886098    1.76715004    0.87168503
 H         -2.37912798   -1.94615400    0.40022400
 O         -2.77555108   -0.76244599   -1.26398504
 H         -3.24147606   -0.42046601    0.68795699
 H         -2.17727208   -1.32882404   -1.76736200
 H         -2.03368902    0.94235498   -1.47869503
 H          1.25655198    2.30877709    2.13161898
 H          0.38704401    1.35416901   -1.87708700
 O          2.14930201   -1.13407195   -0.59557402
 H          1.31496000   -0.54132700    1.18156195
 C          2.27463889   -2.47414303   -0.11747600
 H          3.08079290   -2.93671703   -0.68605101
 H          1.34974694   -3.03541708   -0.27207601
 H          2.52933598   -2.47702503    0.94809002
