27
wb97x-d4 ma-def2-tzvp(-f) cpcm(dmso) E: -727.015824913529, G: -726.82252691
 C         -1.14769101   -0.24066000    0.70721000
 C         -1.22362399    1.28162599    0.38493699
 O          0.14421500   -0.63126802    1.18278694
 C         -1.61868501   -1.14788198   -0.43153200
 H         -1.80365503   -0.44160199    1.55611801
 C          1.27223003   -0.29852700    0.41211200
 C          1.17884505    1.07332695   -0.28233001
 C          0.15851299    1.95059204    0.42487299
 H          2.16725302    1.54089200   -0.24569599
 O          0.74384099    0.96467501   -1.63661098
 O          0.62289202    2.16696692    1.75010502
 H          0.08051400    2.89981198   -0.11611600
 O         -1.85573900    1.54357803   -0.87093699
 H         -1.85187304    1.76713705    1.13355696
 H         -1.05281901   -0.97057903   -1.34967005
 O         -3.01714611   -0.99064398   -0.65895301
 H         -1.45575094   -2.18332505   -0.12733400
 H         -3.12867999   -0.07763000   -0.96103901
 H         -1.19306195    1.35212505   -1.55332303
 H          0.08577800    2.86295295    2.14600492
 H          1.09846103    0.13395301   -1.98371601
 O          1.54142404   -1.24318504   -0.59271699
 H          2.09644508   -0.28763300    1.13162506
 C          1.95707703   -2.51200294   -0.09048500
 H          2.20875001   -3.12651610   -0.95402002
 H          1.15375900   -2.98895907    0.47602701
 H          2.83872795   -2.39722300    0.54912198
