27
wb97x-d4 ma-def2-tzvp(-f) cpcm(dmso) E: -727.027139634376, G: -726.83450576
 C         -1.05152702   -0.16807701    0.52996099
 C         -1.01917398    1.33010399    0.22479700
 O         -0.09378000   -0.86302900   -0.26649600
 C         -2.40435195   -0.81707799    0.29330000
 H         -0.81109399   -0.29121199    1.59456599
 C          1.23557103   -0.43598899    0.02163300
 C          1.41796696    1.03386497   -0.35383800
 C          0.39928299    1.88248205    0.41749001
 H          2.42563605    1.33824205   -0.06125600
 O          1.29727006    1.24793899   -1.75073195
 O          0.77364600    1.85216498    1.78950596
 H          0.43495899    2.90450191    0.02524800
 O         -1.39164805    1.62098598   -1.12527394
 H         -1.69777906    1.83787501    0.92244703
 H         -2.35862207   -1.86862195    0.59016299
 O         -2.84322691   -0.70832503   -1.06690705
 H         -3.15475297   -0.31247401    0.90480500
 H         -2.30728292   -1.30949104   -1.59919798
 H         -2.06364489    0.96598500   -1.38337302
 H          0.20845900    2.46732402    2.27172494
 H          0.34631100    1.27313900   -1.94616103
 O          2.11738205   -1.21869600   -0.70823401
 H          1.41297305   -0.55866402    1.10104704
 C          2.24732995   -2.54602098   -0.19732800
 H          2.57568192   -2.52255297    0.84760499
 H          3.00204897   -3.04409504   -0.80518103
 H          1.30236495   -3.09028292   -0.27031401
