27
wb97x-d4 ma-def2-tzvp(-f) cpcm(dmso) E: -727.02510019773, G: -726.83412689
 C         -1.13330305   -0.31626499    0.29887000
 C         -1.17409694    1.17826903   -0.01941100
 O          0.01141700   -0.91775900   -0.30896801
 C         -2.33715010   -1.08429098   -0.23232800
 H         -1.07887602   -0.43496200    1.38874197
 C          1.22324502   -0.39412200    0.21102600
 C          1.34918499    1.09394002   -0.10162100
 C          0.13316999    1.85191405    0.42864701
 H          2.25348997    1.47764504    0.38226300
 O          1.39933097    1.31132996   -1.50999796
 O          0.24916101    1.86005795    1.84656000
 H          0.15789001    2.87119007    0.02837800
 O         -1.42021298    1.42397594   -1.39908803
 H         -2.00127912    1.63278306    0.53275502
 H         -2.35371304   -1.02738202   -1.32394695
 O         -3.55928802   -0.60854799    0.32350799
 H         -2.23972392   -2.13179207    0.05919100
 H         -3.83283901    0.17535400   -0.16577999
 H         -0.59543198    1.23356700   -1.87122798
 H         -0.45038500    2.41986609    2.20350599
 H          2.01360607    0.66541600   -1.88312304
 O          2.28438401   -1.04489994   -0.40765500
 H          1.24670601   -0.55180401    1.29948997
 C          2.42600989   -2.41206288   -0.01580300
 H          3.34246993   -2.77718592   -0.47755101
 H          1.57795203   -3.00807095   -0.36018199
 H          2.50828290   -2.48616099    1.07374799
