27
wb97x-d4 ma-def2-tzvp(-f) cpcm(dmso) E: -727.02597042962, G: -726.83334531
 C         -1.28255701   -0.34285200    0.88231999
 C         -1.24415302    1.17339599    0.67552900
 O         -0.00472900   -0.81231803    1.35345805
 C         -1.85406899   -1.16649699   -0.27029601
 H         -1.94937897   -0.54137897    1.72566104
 C          1.14909005   -0.43344700    0.64699298
 C          1.21739101    1.07672095    0.41977999
 C         -0.07263400    1.61106205   -0.18852399
 H          1.35144496    1.54710996    1.39716399
 O          2.35473609    1.42867804   -0.35246399
 O         -0.07744600    3.03801394   -0.19329700
 H         -0.19734600    1.23843002   -1.20866501
 O         -2.49306607    1.57772100    0.13071300
 H         -1.10537696    1.63642704    1.66146398
 H         -1.73606300   -2.22361708   -0.00001400
 O         -1.32403696   -0.91446602   -1.56356502
 H         -2.92224693   -0.95180702   -0.32662901
 H         -0.36197799   -1.03055203   -1.50289905
 H         -2.46923900    2.53893495    0.04898400
 H          0.61944097    3.33344698   -0.79133397
 H          2.36188293    0.85614097   -1.13166106
 O          1.26018703   -1.06386697   -0.61350501
 H          1.98429501   -0.75437802    1.27629197
 C          1.62802196   -2.44604206   -0.52519000
 H          1.72620595   -2.81124306   -1.54656196
 H          0.85799998   -3.01769996   -0.00101000
 H          2.58362389   -2.54591990   -0.00274300
