27
wb97x-d4 ma-def2-tzvp(-f) cpcm(dmso) E: -727.028786466583, G: -726.83856265
 C         -0.32857999   -1.25284302    0.46295899
 C         -1.68582594   -0.62389499    0.16943200
 O          0.70432299   -0.62962002   -0.30080399
 C         -0.27525699   -2.73411798    0.14201701
 H         -0.12049800   -1.11395705    1.53316295
 C          0.85160702    0.74391699    0.02249200
 C         -0.42551300    1.48977697   -0.34678400
 C         -1.60046303    0.88139498    0.40359101
 H         -0.58061999    1.38955605   -1.42644799
 O         -0.35690299    2.85995293    0.02729000
 O         -2.83582211    1.45095396   -0.01442600
 H         -1.44986796    1.05445397    1.47716200
 O         -2.06667495   -0.91364998   -1.17031896
 H         -2.41944408   -1.04514301    0.86845201
 H         -1.06947100   -3.24996090    0.68510801
 O          0.95880902   -3.31263590    0.55893302
 H         -0.42834499   -2.88397598   -0.93074501
 H          1.66440499   -2.84933305    0.09116500
 H         -2.79646993   -0.31835899   -1.38630199
 H         -2.72779703    2.41018391   -0.03076000
 H          0.29294801    3.29222393   -0.53934902
 O          1.89572001    1.27054596   -0.72333503
 H          1.05704296    0.84316999    1.10096896
 C          3.18595695    0.87704802   -0.25145099
 H          3.91808701    1.39631498   -0.86866099
 H          3.32543802   -0.20253800   -0.34916300
 H          3.31321502    1.17053902    0.79581201
