27
wb97x-d4 ma-def2-tzvp(-f) cpcm(dmso) E: -727.028533930693, G: -726.83767043
 C         -0.38956699   -1.21151197    0.42840800
 C         -1.73131704   -0.53068203    0.18800800
 O          0.61009097   -0.55638701   -0.35693899
 C         -0.37083101   -2.67766309    0.04208600
 H         -0.13660400   -1.12022901    1.49344301
 C          0.82480198    0.77520400    0.09329100
 C         -0.43429101    1.61088705   -0.12735499
 C         -1.63105798    0.95348299    0.55769700
 H         -0.61320698    1.66525698   -1.20921099
 O         -0.26952499    2.91320992    0.41262299
 O         -2.84328008    1.62496102    0.25077301
 H         -1.49389195    1.03512204    1.64024198
 O         -2.17679501   -0.67592102   -1.16035497
 H         -2.49813700   -0.99577701    0.81167799
 H         -1.15168703   -3.20409799    0.59429097
 O          0.86848998   -3.29055500    0.38592201
 H         -0.56894702   -2.78383708   -1.02908695
 H          1.56172895   -2.83295488   -0.10526200
 H         -1.42703295   -0.51034898   -1.74741304
 H         -3.10261106    1.33430803   -0.63487297
 H          0.44889200    3.33962703   -0.07018500
 O          1.85062897    1.34052896   -0.64889199
 H          1.08625305    0.75158399    1.16338599
 C          3.14654303    0.84651101   -0.30275199
 H          3.23687601   -0.21503100   -0.54626203
 H          3.33830500    0.99684101    0.76474398
 H          3.86617208    1.41747296   -0.88800400
