27
wb97x-d4 ma-def2-tzvp(-f) cpcm(dmso) E: -727.026082473296, G: -726.83557978
 C         -0.18858400   -1.14874005    0.41607499
 C         -1.55187905   -0.52903098    0.12530901
 O          0.80199403   -0.47504300   -0.35859901
 C         -0.09007700   -2.62023211    0.05595600
 H          0.02502900   -1.02543604    1.48649395
 C          0.97144502    0.87949699    0.05064100
 C         -0.31360999    1.64779997   -0.22446300
 C         -1.49134398    0.95888698    0.46629000
 H         -0.47353300    1.65020204   -1.31097996
 O         -0.16157600    2.97673297    0.25204000
 O         -2.70513201    1.62519002    0.14077100
 H         -1.36348104    1.06302404    1.54795802
 O         -1.95578003   -0.71831298   -1.22957003
 H         -2.31456709   -1.00757599    0.74141198
 H         -0.28346500   -2.75364590   -1.01323795
 O         -1.05092597   -3.32135892    0.83967602
 H          0.92532301   -2.96535397    0.27616599
 H         -0.99453002   -4.25626087    0.61422098
 H         -1.19429600   -0.55017799   -1.80035996
 H         -2.95054603    1.33584797   -0.74948299
 H         -1.03086805    3.39466596    0.19907300
 O          2.00187802    1.43389106   -0.69018298
 H          1.21046400    0.89854300    1.12623096
 C          3.29394102    0.95809299   -0.30733699
 H          4.02069521    1.52154398   -0.89127803
 H          3.39933705   -0.10796100   -0.52278399
 H          3.46408892    1.13521194    0.75996399
