27
wb97x-d4 ma-def2-tzvp(-f) cpcm(dmso) E: -727.025869176779, G: -726.83551455
 C         -0.20056500   -1.26431406    0.26982599
 C         -1.58618498   -0.69034100   -0.02230600
 O          0.77461302   -0.50100100   -0.44449401
 C         -0.02592700   -2.71037698   -0.17523600
 H         -0.01000000   -1.19317198    1.35008299
 C          0.85624403    0.83332700    0.04470300
 C         -0.46784601    1.55272400   -0.19151101
 C         -1.60193801    0.76294601    0.44771600
 H         -0.63000500    1.63110995   -1.27299094
 O         -0.46282801    2.84473109    0.40176800
 O         -2.86678696    1.34045196    0.15897501
 H         -1.43571103    0.75605398    1.53399801
 O         -1.92468596   -0.82465202   -1.39773595
 H         -2.33939910   -1.24967897    0.53522003
 H         -0.19882900   -2.78814793   -1.24940395
 O         -0.96317899   -3.57441902    0.45561400
 H          1.00281298   -3.02023101    0.03416000
 H         -0.72200298   -3.65683389    1.38589001
 H         -1.16039598   -0.55718398   -1.92420602
 H         -2.82957602    2.26373410    0.43808299
 H          0.14593001    3.40159988   -0.09790700
 O          1.84755695    1.50560498   -0.65368998
 H          1.08908403    0.80607998    1.12120402
 C          3.17200398    1.14270496   -0.25649101
 H          3.37204695    0.09120700   -0.47694999
 H          3.31142592    1.32726502    0.81374300
 H          3.85414290    1.77081203   -0.82805997
