27
wb97x-d4 ma-def2-tzvp(-f) cpcm(dmso) E: -727.026319201055, G: -726.83518856
 C         -0.14398500   -1.20791698    0.64065301
 C         -1.55651796   -0.71593899    0.31503600
 O          0.78124899   -0.59865201   -0.26200399
 C          0.02256700   -2.71834612    0.59023499
 H          0.09064900   -0.90197498    1.67045796
 C          0.86074102    0.80536503   -0.04847300
 C         -0.48342499    1.45858097   -0.35701501
 C         -1.58223498    0.80306500    0.46956301
 H         -0.68913102    1.33378303   -1.42709804
 O         -0.47505301    2.83866310   -0.01791400
 O         -2.86501288    1.29538906    0.11453500
 H         -1.37704301    1.02097595    1.52662003
 O         -1.98537004   -1.14882398   -0.97739702
 H         -2.26477504   -1.15476894    1.02123296
 H          1.04648399   -2.96762609    0.87597197
 O         -0.19777399   -3.30069709   -0.68875998
 H         -0.65509802   -3.14944696    1.33816600
 H         -1.03112805   -2.93882298   -1.02224004
 H         -1.37529397   -0.79960299   -1.64005399
 H         -2.83485508    2.25687695    0.19508000
 H          0.10867500    3.29585505   -0.63474500
 O          1.80671704    1.33844697   -0.91113102
 H          1.14201999    0.99328899    1.00030005
 C          3.15481210    1.08121800   -0.51148701
 H          3.79695201    1.62220395   -1.20537102
 H          3.38065195    0.01305900   -0.56111401
 H          3.32517910    1.44584703    0.50695503
