27
wb97x-d4 ma-def2-tzvp(-f) cpcm(dmso) E: -727.02666589553, G: -726.83487716
 C         -0.12746300   -1.17911804    0.58203501
 C         -1.52094901   -0.61620599    0.31009501
 O          0.80593401   -0.53249198   -0.28210101
 C         -0.00538600   -2.68602490    0.41750699
 H          0.12261900   -0.95751399    1.62978101
 C          0.95100200    0.84985101    0.02977400
 C         -0.36833799    1.56823897   -0.22251201
 C         -1.49626100    0.89054197    0.55721599
 H         -0.57768202    1.51179302   -1.29943204
 O         -0.23064700    2.92358589    0.17676400
 O         -2.74135900    1.50433397    0.25167400
 H         -1.32402205    1.06127799    1.62394595
 O         -1.97650599   -0.90542901   -1.01607597
 H         -2.24607301   -1.07985604    0.98227102
 H          1.01249897   -2.98374605    0.67634797
 O         -0.24270099   -3.16477489   -0.90131402
 H         -0.69172102   -3.15434504    1.13388300
 H         -1.10909104   -2.83582711   -1.17516100
 H         -1.28873003   -0.63306397   -1.63891304
 H         -3.01643801    1.17537904   -0.61548299
 H         -1.11067700    3.32001305    0.13825700
 O          1.92185199    1.38561296   -0.80058402
 H          1.24500501    0.94784999    1.08761704
 C          3.24742699    0.96784598   -0.46818301
 H          3.37641001   -0.10334800   -0.64104402
 H          3.46849608    1.19954205    0.57923102
 H          3.92280102    1.52588105   -1.11559498
