27
wb97x-d4 ma-def2-tzvp(-f) cpcm(dmso) E: -727.025523234247, G: -726.83431905
 C         -0.50876302   -1.30661595    0.55838001
 C         -1.60438299   -0.45310199   -0.07095700
 O          0.77465099   -0.78644502    0.19786499
 C         -0.54479700   -2.75681996    0.11793500
 H         -0.62285501   -1.26377499    1.65023100
 C          1.00022900    0.50889301    0.74781799
 C          0.00082800    1.47925699    0.11886400
 C         -1.42277801    0.99249297    0.39103201
 H          0.16379400    1.50382304   -0.96574098
 O          0.21359600    2.76777291    0.67338097
 O         -2.36598206    1.86436796   -0.21807800
 H         -1.60774004    1.04269397    1.46826804
 O         -1.60960495   -0.52811998   -1.49584305
 H         -2.58219790   -0.81381398    0.25651500
 H         -1.53296101   -3.16911101    0.33067301
 O          0.39746001   -3.54669809    0.83664602
 H         -0.36302900   -2.82481003   -0.95936000
 H          1.27361596   -3.18159604    0.66226602
 H         -0.69643301   -0.48305801   -1.80823302
 H         -2.37561488    1.65031600   -1.16192496
 H         -0.52034700    3.32417297    0.38174900
 O          2.33611989    0.84580398    0.56878603
 H          0.84794301    0.47374400    1.83380795
 C          2.74265909    1.11356103   -0.77696800
 H          2.41561007    0.32238501   -1.45577097
 H          3.83148694    1.14621603   -0.76214600
 H          2.35949397    2.07846308   -1.11919606
