27
wb97x-d4 ma-def2-tzvp(-f) cpcm(dmso) E: -727.025261236753, G: -726.83394088
 C         -0.15821099   -1.26616895    0.90847200
 C         -1.40814996   -0.73713303    0.21148500
 O          1.01735604   -0.62028998    0.42668501
 C          0.02450200   -2.77134991    0.77853698
 H         -0.27875501   -1.05189300    1.98074102
 C          0.99899501    0.77977198    0.65191603
 C         -0.16993700    1.41179097   -0.11143000
 C         -1.46854603    0.77661997    0.35775599
 H         -0.05401000    1.23271799   -1.18398798
 O         -0.27024201    2.80506301    0.16033600
 O         -2.58109093    1.24052501   -0.39696601
 H         -1.60791302    1.01423502    1.42075098
 O         -1.37709701   -1.11473298   -1.16482198
 H         -2.28603411   -1.17734003    0.69851100
 H          0.88209200   -3.07531691    1.38208604
 O          0.27719900   -3.22060394   -0.54751199
 H         -0.87172800   -3.25144005    1.19174302
 H         -0.36165699   -2.77382493   -1.12176895
 H         -2.12609696   -0.68985301   -1.60151398
 H         -2.52310300    2.20333290   -0.44037101
 H          0.42635301    3.26681709   -0.32007200
 O          2.24500394    1.30430305    0.31173399
 H          0.88085097    0.98276502    1.72461295
 C          2.61107302    1.19769394   -1.06888103
 H          3.67330790    1.43407297   -1.11868501
 H          2.05935407    1.91403997   -1.68454802
 H          2.44648290    0.18619999   -1.44480801
