27
wb97x-d4 ma-def2-tzvp(-f) cpcm(dmso) E: -727.028551295291, G: -726.83760404
 C         -0.08685000   -1.26543701    0.56116098
 C         -1.49950504   -0.74757898    0.29742801
 O          0.87044501   -0.58042401   -0.24215101
 C          0.06841000   -2.76234603    0.33221999
 H          0.12551901   -1.08171594    1.62466502
 C          0.90358901    0.81098598    0.03528400
 C         -0.44047299    1.44009399   -0.31475699
 C         -1.53707099    0.76338100    0.48980299
 H         -0.61950803    1.29528904   -1.38556600
 O         -0.47286701    2.82174110    0.01948100
 O         -2.82767892    1.21863103    0.10156400
 H         -1.36614799    0.97739798    1.55308604
 O         -1.88908100   -1.10197997   -1.02886200
 H         -2.17748404   -1.21467304    1.02148402
 H          1.06846702   -3.06484294    0.64901501
 O         -0.06874800   -3.16551304   -1.02530301
 H         -0.66236699   -3.27493906    0.97067499
 H         -0.86126298   -2.72850204   -1.36893201
 H         -2.73283291   -0.66984701   -1.21188200
 H         -2.79740191    2.18255091    0.05669800
 H          0.12716600    3.28725290   -0.57497400
 O          1.87619495    1.40261400   -0.75809401
 H          1.13096595    0.96320099    1.10339999
 C          3.20986390    1.16100502   -0.30559000
 H          3.46352506    0.10069100   -0.38223001
 H          3.32511997    1.49216104    0.73188698
 H          3.87001109    1.74080300   -0.94950801
