27
wb97x-d4 ma-def2-tzvp(-f) cpcm(dmso) E: -727.023845523623, G: -726.8332761199999
 C         -0.15717199   -1.34571898    0.57990199
 C         -1.38094103   -0.72125798   -0.07912900
 O          1.03179896   -0.63267899    0.24769500
 C          0.08230100   -2.79158998    0.16111800
 H         -0.31317699   -1.30836594    1.66840994
 C          1.00136900    0.71449500    0.68975699
 C         -0.14542501    1.45552397   -0.00373400
 C         -1.45425105    0.74927199    0.31067199
 H          0.01107700    1.45023406   -1.08597600
 O         -0.26817900    2.78845501    0.48089799
 O         -2.54185510    1.33627295   -0.39517000
 H         -1.63201904    0.81121999    1.39259696
 O         -1.28755903   -0.87522900   -1.49022806
 H         -2.27418590   -1.23188806    0.29785201
 H          0.22294401   -2.84182906   -0.91896200
 O         -1.03017902   -3.62294698    0.47247601
 H          0.99343902   -3.15202594    0.64879400
 H         -1.06473303   -3.73602200    1.42958105
 H         -1.95850003   -0.29943001   -1.87901700
 H         -2.46656704    2.29425406   -0.29906201
 H          0.42566201    3.32901597    0.08627700
 O          2.25585198    1.28346395    0.47847101
 H          0.84676898    0.74615002    1.77637899
 C          2.67854404    1.37720394   -0.88647300
 H          3.73968410    1.62185597   -0.85703599
 H          2.14579105    2.17212510   -1.41632998
 H          2.53951502    0.42943999   -1.40976000
