27
wb97x-d4 ma-def2-tzvp(-f) cpcm(dmso) E: -727.024114040247, G: -726.83265298
 C         -0.26442200   -1.34066701    0.50085300
 C         -1.43196297   -0.56518197   -0.10095600
 O          0.96487701   -0.70737302    0.14625300
 C         -0.16958100   -2.78348589    0.02142000
 H         -0.37929001   -1.33491600    1.59469497
 C          1.08478403    0.58727700    0.73115301
 C          0.00306500    1.49030399    0.14012399
 C         -1.37180698    0.87674898    0.40167901
 H          0.15324500    1.56480503   -0.94380099
 O          0.11460300    2.77266788    0.73749000
 O         -2.38843203    1.68208206   -0.18172900
 H         -1.55622196    0.88175201    1.48023200
 O         -1.43282497   -0.59883499   -1.52717102
 H         -2.37371898   -1.01652396    0.21548800
 H         -0.07024600   -2.81087589   -1.06465805
 O         -1.34356594   -3.51948595    0.34508801
 H          0.72022200   -3.24293089    0.46299601
 H         -1.37006199   -3.64196110    1.30146599
 H         -0.52509499   -0.48395500   -1.83816397
 H         -2.38533807    1.49074495   -1.13039601
 H         -0.66295099    3.27793694    0.46662399
 O          2.38634992    1.03896904    0.55339402
 H          0.94613999    0.50773501    1.81671202
 C          2.75150800    1.39843702   -0.78246301
 H          2.47569394    0.61667901   -1.49418402
 H          3.83471489    1.51432204   -0.77828401
 H          2.29031491    2.34572911   -1.07386196
