27
wb97x-d4 ma-def2-tzvp(-f) cpcm(dmso) E: -727.023302639397, G: -726.83235924
 C         -0.13901401   -1.29207897    0.72449303
 C         -1.34122097   -0.72533703   -0.02084600
 O          1.06425405   -0.62090099    0.35759899
 C          0.10824200   -2.77009392    0.44068500
 H         -0.32294601   -1.15626395    1.79945695
 C          1.04212403    0.76440197    0.66946900
 C         -0.07316100    1.43928397   -0.13556799
 C         -1.40306497    0.77927899    0.21128300
 H          0.11690300    1.31202197   -1.20206296
 O         -0.12720899    2.84206295    0.09201300
 O         -2.46106410    1.29978299   -0.58456498
 H         -1.61344802    0.95247102    1.27624702
 O         -1.22259498   -1.03272796   -1.40465498
 H         -2.25229096   -1.17802095    0.38877299
 H          0.38225901   -2.89816689   -0.60975498
 O         -1.01732802   -3.57250500    0.77967298
 H          0.94089299   -3.10822606    1.05988204
 H         -1.65507805   -3.52093196    0.05861900
 H         -1.88899803   -0.50805998   -1.86668205
 H         -2.36339998    2.26043105   -0.60759097
 H         -0.24347800    2.99818802    1.03868401
 O          2.31150699    1.28939998    0.45530599
 H          0.84920198    0.89424402    1.74387097
 C          2.73109508    1.36864603   -0.91070402
 H          2.22225809    2.18428612   -1.43123496
 H          2.55440402    0.42685601   -1.43505001
 H          3.80115604    1.57196105   -0.88733798
