27
wb97x-d4 ma-def2-tzvp(-f) cpcm(dmso) E: -727.021925401162, G: -726.829748
 C         -0.47710699   -1.13791299    0.70358801
 C         -1.50713205   -0.46276900   -0.20451801
 O          0.55815703   -0.24494500    1.17336094
 C          0.14547201   -2.38036990    0.09021900
 H         -1.00520205   -1.43835199    1.61295104
 C          0.80303901    0.90476799    0.40054601
 C         -0.44660100    1.77666605    0.21513601
 C         -1.73401797    0.95221198    0.31069499
 H         -0.38968599    2.23167300   -0.77892399
 O         -0.40153599    2.79151607    1.21374798
 O         -2.80949092    1.60197198   -0.35483801
 H         -2.01876593    0.88864499    1.36431599
 O         -1.19319904   -0.46702000   -1.59615195
 H         -2.43913007   -1.02437794   -0.11525700
 H         -0.65080702   -3.06681895   -0.20607001
 O          0.95604903   -3.07227397    1.03720403
 H          0.72851002   -2.12569189   -0.79894602
 H          1.62430799   -2.45163393    1.35355997
 H         -0.28187799   -0.14777800   -1.70206702
 H         -2.64782500    1.52099001   -1.30458796
 H         -1.18557405    3.34429193    1.10600197
 O          1.28963900    0.58810902   -0.88611603
 H          1.55955100    1.46542895    0.95661998
 C          2.62600994    0.08190100   -0.88618100
 H          2.87904811   -0.13558400   -1.92290795
 H          2.70799804   -0.83094501   -0.29204699
 H          3.31016707    0.83829701   -0.48933500
