27
wb97x-d4 ma-def2-tzvp(-f) cpcm(dmso) E: -727.021784822534, G: -726.82917373
 C         -0.47541401   -1.10917199    0.67793798
 C         -1.51376998   -0.44447500   -0.22836500
 O          0.56563801   -0.21463700    1.13206100
 C          0.14609300   -2.35377502    0.06811700
 H         -0.99685001   -1.40390003    1.59315300
 C          0.78191501    0.94445902    0.36372700
 C         -0.48264199    1.81264699    0.23424201
 C         -1.76483703    0.96983802    0.28135601
 H         -0.42988300    2.32902098   -0.72561598
 O         -0.49913800    2.83876395    1.21857500
 O         -2.83033299    1.59904504   -0.41643700
 H         -2.08530211    0.89401501    1.32518601
 O         -1.20624304   -0.44701201   -1.62090099
 H         -2.43852401   -1.01742494   -0.13502701
 H         -0.64878899   -3.04958105   -0.20922500
 O          0.97737700   -3.02858400    1.00931799
 H          0.71334398   -2.10268998   -0.83238602
 H          1.64970696   -2.40049696    1.30175996
 H         -0.30151600   -0.10850300   -1.72913694
 H         -2.65079498    1.49302495   -1.36067402
 H         -0.61415601    2.43056202    2.08604503
 O          1.23600495    0.64678901   -0.93936598
 H          1.55136001    1.50408900    0.90326297
 C          2.57463694    0.14658999   -0.98046201
 H          2.67485809   -0.77301902   -0.39978001
 H          3.26513100    0.90124798   -0.59148097
 H          2.80212998   -0.05682600   -2.02588391
