27
wb97x-d4 ma-def2-tzvp(-f) cpcm(dmso) E: -727.028174255399, G: -726.83719989
 C         -0.38039601   -1.17096305    0.48186600
 C         -1.70520604   -0.47409800    0.19104999
 O          0.64282501   -0.58073002   -0.32374901
 C         -0.38710701   -2.65462399    0.17024501
 H         -0.13714400   -1.02984595    1.54367101
 C          0.90556097    0.77021998    0.04411300
 C         -0.33466300    1.60809803   -0.23645900
 C         -1.54366195    1.01577103    0.48971200
 H         -0.51016098    1.58759999   -1.32036602
 O         -0.09599800    2.93891501    0.19677299
 O         -2.71618891    1.75066102    0.16242300
 H         -1.39219999    1.14045799    1.56607604
 O         -2.14544010   -0.67378199   -1.15146101
 H         -2.48872995   -0.88439000    0.83232701
 H         -1.17818296   -3.13887000    0.74593699
 O          0.84121102   -3.26995301    0.54737598
 H         -0.58476102   -2.81059909   -0.89498800
 H          1.54493296   -2.83300495    0.05207400
 H         -1.38883197   -0.55505502   -1.74090600
 H         -2.99336696    1.45761704   -0.71721900
 H         -0.93972099    3.40641308    0.14490101
 O          1.95573997    1.23683703   -0.72834802
 H          1.16213095    0.80448198    1.11517704
 C          3.22135901    0.68585801   -0.35714701
 H          3.41668200    0.86236900    0.70591199
 H          3.97330499    1.19754303   -0.95661700
 H          3.25801301   -0.38692701   -0.56237203
