27
wb97x-d4 ma-def2-tzvp(-f) cpcm(dmso) E: -727.021064335149, G: -726.82916152
 C         -0.50315303   -1.08514500    0.68158901
 C         -1.42893100   -0.47249001   -0.36028299
 O          0.78134298   -0.43649000    0.73730099
 C         -0.23042201   -2.55626512    0.43148199
 H         -0.98563302   -0.97180903    1.65972304
 C          0.84136403    0.91984200    0.37101099
 C         -0.45805800    1.67011905    0.65809500
 C         -1.68638897    1.00200498    0.00688800
 H         -0.36254001    2.68515205    0.26361901
 O         -0.69057798    1.69147599    2.06427503
 O         -2.15117502    1.72280204   -1.12167299
 H         -2.47376704    1.02497303    0.76469898
 O         -0.94523197   -0.60408801   -1.69372702
 H         -2.37655807   -1.01414001   -0.33581299
 H         -1.17911696   -3.09634399    0.40694401
 O          0.54654199   -3.13519192    1.47753203
 H          0.27041101   -2.67834592   -0.53383797
 H          1.39462996   -2.67542005    1.49451196
 H         -0.08856700   -0.14231600   -1.73364198
 H         -1.85117304    1.23619795   -1.90362406
 H          0.03543100    2.16696000    2.48616290
 O          1.11818504    1.07277906   -1.00819504
 H          1.66959405    1.34777796    0.94682300
 C          2.44032598    0.65512699   -1.36378706
 H          3.17906308    1.20636702   -0.77373898
 H          2.56811404    0.88459897   -2.42081690
 H          2.56629395   -0.41813001   -1.20151806
