27
wb97x-d4 ma-def2-tzvp(-f) cpcm(dmso) E: -727.020991114804, G: -726.82896081
 C         -0.50823498   -1.11129606    0.61016399
 C         -1.38609695   -0.41440901   -0.42111000
 O          0.79077601   -0.50323600    0.74244398
 C         -0.26452601   -2.57191992    0.28058699
 H         -1.01722705   -1.04215801    1.57876897
 C          0.89846802    0.87066603    0.45805499
 C         -0.38553599    1.63254905    0.75875598
 C         -1.61081398    1.04777503    0.01642600
 H         -0.25079799    2.67098999    0.44401199
 O         -0.54689401    1.54637396    2.17173791
 O         -1.99475002    1.84823895   -1.08875406
 H         -2.43664908    1.05722404    0.73387700
 O         -0.86599201   -0.48877800   -1.74516594
 H         -2.34836793   -0.92917299   -0.45271400
 H         -1.22480500   -3.08547711    0.20017301
 O          0.47036800   -3.23067904    1.30968297
 H          0.25913301   -2.64979005   -0.67717397
 H          1.32594597   -2.79008698    1.37960196
 H          0.00580900   -0.05467800   -1.73348296
 H         -1.68241298    1.39223397   -1.88421702
 H         -1.28694105    2.11104202    2.42402005
 O          1.21192396    1.09261000   -0.90306199
 H          1.71824706    1.24233401    1.08007598
 C          2.53387690    0.66460502   -1.24689603
 H          2.63486099   -0.41747600   -1.13291097
 H          3.26872110    1.17201602   -0.61429399
 H          2.69191194    0.94050097   -2.28860211
