27
wb97x-d4 ma-def2-tzvp(-f) cpcm(dmso) E: -727.021579117337, G: -726.82880567
 C         -0.20895100   -1.05751002    0.95605999
 C         -1.37935305   -0.59884298    0.07852400
 O          0.73732102   -0.01139000    1.25391495
 C          0.53060102   -2.26272202    0.37829101
 H         -0.63208097   -1.33929002    1.92404902
 C          0.79245299    1.05783904    0.34199300
 C         -0.55848002    1.77956402    0.18716601
 C         -1.73557794    0.83698499    0.43762901
 H         -0.61525601    2.16584396   -0.83487099
 O         -0.67044097    2.84727907    1.12212396
 O         -2.90919995    1.26944101   -0.23582000
 H         -1.96351504    0.86916101    1.50654900
 O         -1.16931403   -0.75411302   -1.32522404
 H         -2.23655009   -1.23258698    0.31068000
 H          1.03813004   -1.99309504   -0.55050898
 O         -0.35608399   -3.35740805    0.16507800
 H          1.28259206   -2.59237099    1.09735596
 H         -0.87743098   -3.15495110   -0.62169403
 H         -0.31317899   -0.35085699   -1.54606605
 H         -2.78844690    1.06681299   -1.17326999
 H         -0.09487200    3.56576896    0.83366197
 O          1.20466101    0.64211297   -0.94265097
 H          1.53088701    1.74858999    0.76061499
 C          2.58700800    0.28113401   -1.00775695
 H          2.82181191   -0.51506501   -0.29798800
 H          3.20864701    1.15638602   -0.79515898
 H          2.77461791   -0.06671500   -2.02268291
