27
wb97x-d4 ma-def2-tzvp(-f) cpcm(dmso) E: -727.020776651418, G: -726.82867931
 C         -0.24969301   -1.05903697    0.83630300
 C         -1.39282203   -0.54943502   -0.04864500
 O          0.71923000   -0.04497400    1.17443597
 C          0.47269699   -2.27779388    0.26867399
 H         -0.70119202   -1.34319198    1.79253697
 C          0.79598600    1.06284106    0.31337199
 C         -0.54447502    1.80823803    0.17639901
 C         -1.73779404    0.87230903    0.37563899
 H         -0.58723402    2.23613596   -0.82966697
 O         -0.65141600    2.83898592    1.15277398
 O         -2.89522505    1.35123599   -0.29570499
 H         -1.97969997    0.86361098    1.44187498
 O         -1.16094005   -0.61944097   -1.45353103
 H         -2.25853896   -1.18732202    0.13429800
 H          0.84916103   -2.07160592   -0.73310399
 O         -0.40520900   -3.39320493    0.15040100
 H          1.32340002   -2.51067209    0.91725200
 H         -0.62070000   -3.70268106    1.03811204
 H         -0.29097399   -0.22552601   -1.63325405
 H         -2.76641893    1.17269504   -1.23717105
 H         -0.05791300    3.55762506    0.90347898
 O          1.22112298    0.69853598   -0.98326099
 H          1.53810704    1.72480094    0.77069902
 C          2.58682299    0.27722600   -1.03695297
 H          3.24189496    1.10579801   -0.75002497
 H          2.78714609   -0.01075900   -2.06798506
 H          2.76467896   -0.57439297   -0.37695199
