27
wb97x-d4 ma-def2-tzvp(-f) cpcm(dmso) E: -727.021637483052, G: -726.82859394
 C         -0.23757701   -0.88513100    1.09502196
 C         -1.32959402   -0.61403900    0.06600500
 O          0.96832597   -0.14864901    0.83535397
 C          0.12691200   -2.35618997    1.22375202
 H         -0.63768899   -0.56797099    2.06681108
 C          0.85214198    1.06090701    0.13032800
 C         -0.47345901    1.77569497    0.38473701
 C         -1.69652295    0.88009399    0.09831300
 H         -0.52232897    2.65329790   -0.26522899
 O         -0.54659599    2.15357590    1.75705397
 O         -2.37550902    1.25895000   -1.08752894
 H         -2.38210011    1.03471100    0.93517101
 O         -0.98039401   -1.03937495   -1.25478899
 H         -2.20707512   -1.20283401    0.33938101
 H          0.88436800   -2.46713495    2.00266409
 O          0.66899401   -2.93113303    0.04027900
 H         -0.77373099   -2.89541197    1.54368997
 H          0.10668700   -2.64654708   -0.69471198
 H         -0.20888600   -0.50559801   -1.52796304
 H         -2.11451602    0.63129199   -1.77652597
 H          0.17477299    2.76680803    1.94342506
 O          0.96003300    0.86374199   -1.26810896
 H          1.69241703    1.67997706    0.46380800
 C          2.26926899    0.44988099   -1.67612803
 H          3.01133204    1.18549097   -1.35108602
 H          2.25663900    0.39544201   -2.76385593
 H          2.51408601   -0.52985102   -1.25986898
