27
wb97x-d4 ma-def2-tzvp(-f) cpcm(dmso) E: -727.022857625322, G: -726.8285399
 C         -0.30339301   -1.04614401    1.02741504
 C         -1.66246605   -0.34854901    0.83930200
 O          0.72463101   -0.06209000    1.24010205
 C          0.08478400   -2.12536407    0.02207100
 H         -0.35403299   -1.57608402    1.98305297
 C          0.85030299    0.98764199    0.31166300
 C         -0.47644100    1.68472803   -0.02176000
 C         -1.66087103    0.73480898   -0.23657100
 H         -0.33129799    2.27892590   -0.92859298
 O         -0.84894800    2.51529288    1.07594001
 O         -1.73066604    0.20051700   -1.54800498
 H         -2.56594205    1.33403397   -0.11278600
 O         -2.70082402   -1.29179895    0.62296402
 H         -1.87959194    0.14937800    1.78713500
 H          1.05338705   -2.53316402    0.32910600
 O          0.14274099   -1.72362006   -1.34791505
 H         -0.65648699   -2.92332101    0.08136700
 H          0.81496698   -1.01902902   -1.40547705
 H         -2.79886293   -1.40340304   -0.33229899
 H         -1.07752299   -0.52517301   -1.63124502
 H         -0.19105300    3.21442199    1.16851604
 O          1.47618794    0.57849199   -0.89019799
 H          1.50467098    1.71080995    0.80954897
 C          2.88177609    0.34123600   -0.73008698
 H          3.26894403    0.07595700   -1.71303999
 H          3.06133008   -0.47782299   -0.02902600
 H          3.37467694    1.24932098   -0.37118399
