27
wb97x-d4 ma-def2-tzvp(-f) cpcm(dmso) E: -727.021632065508, G: -726.82852365
 C         -0.29227099   -1.00173903    0.98411399
 C         -1.34173906   -0.59433502   -0.04497800
 O          0.93029898   -0.25556400    0.86436403
 C          0.05367200   -2.48225689    0.94653302
 H         -0.72711301   -0.79895800    1.97154796
 C          0.86116600    1.01916397    0.27975199
 C         -0.46175301    1.73382103    0.55165201
 C         -1.69028401    0.89086300    0.14929900
 H         -0.47278899    2.66481495   -0.02103000
 O         -0.57476598    1.99670398    1.94816005
 O         -2.35210109    1.40756595   -0.99299997
 H         -2.38677812    0.95912099    0.98849601
 O         -0.95169300   -0.87041003   -1.39354897
 H         -2.23645210   -1.19498706    0.12839399
 H          0.78100199   -2.69692397    1.73240602
 O          0.63265902   -2.91541409   -0.27916899
 H         -0.86318398   -3.04381108    1.16693294
 H          0.09760100   -2.53661990   -0.99183398
 H         -0.16351700   -0.32187700   -1.57601595
 H         -2.05839109    0.88546097   -1.75305700
 H          0.14301200    2.58825207    2.20600200
 O          1.02346802    0.96351302   -1.12685800
 H          1.69704795    1.58454597    0.70612103
 C          2.34238291    0.57369101   -1.52612495
 H          2.55649805   -0.45047200   -1.21247005
 H          3.08049893    1.25544500   -1.09284699
 H          2.37352204    0.64040601   -2.61284304
