27
wb97x-d4 ma-def2-tzvp(-f) cpcm(dmso) E: -727.022962994199, G: -726.8284477899999
 C         -0.30388299   -1.00147903    1.06441998
 C         -1.63583195   -0.26268199    0.84235197
 O          0.75753599   -0.04860000    1.25524902
 C          0.05489400   -2.12486196    0.09758000
 H         -0.38156399   -1.49859297    2.03579211
 C          0.92620200    0.97089499    0.29898500
 C         -0.36939499    1.70213604   -0.06037800
 C         -1.58584404    0.78643698   -0.26473299
 H         -0.19400699    2.27051401   -0.97855502
 O         -0.60859901    2.57629490    1.04194605
 O         -1.65877903    0.22012401   -1.56320095
 H         -2.47805691    1.41321099   -0.17186800
 O         -2.70736194   -1.17313802    0.64873701
 H         -1.84172404    0.27280799    1.77183700
 H          1.00575995   -2.55603194    0.42717099
 O          0.13950101   -1.76859999   -1.28373897
 H         -0.71436101   -2.89441895    0.17441200
 H          0.83635700   -1.08990598   -1.35552704
 H         -2.79242897   -1.32868898   -0.30149800
 H         -1.03342605   -0.53240198   -1.61674201
 H         -1.36024106    3.13889098    0.82110500
 O          1.54061997    0.50571102   -0.88716698
 H          1.59625494    1.68806505    0.78097898
 C          2.93851209    0.23463000   -0.71546102
 H          3.45773506    1.14249599   -0.39553100
 H          3.31730008   -0.08384000   -1.68582106
 H          3.09483290   -0.55896997    0.01965500
