27
wb97x-d4 ma-def2-tzvp(-f) cpcm(dmso) E: -727.028404166686, G: -726.83680382
 C         -0.21982101   -1.11387002    0.64786100
 C         -1.58987999   -0.49018201    0.37614900
 O          0.77023298   -0.55795902   -0.21286900
 C         -0.18365200   -2.62289810    0.47331899
 H          0.03513300   -0.90025502    1.69637597
 C          0.95525903    0.83606797   -0.00170000
 C         -0.33483300    1.57763505   -0.32274199
 C         -1.47734499    1.02139497    0.52539003
 H         -0.55804199    1.42306101   -1.38509905
 O         -0.14189900    2.95868707   -0.04839100
 O         -2.69429493    1.68508601    0.20107900
 H         -1.27454996    1.25615597    1.57437396
 O         -2.08442211   -0.75381398   -0.93462700
 H         -2.29369998   -0.87225503    1.12662601
 H          0.80652899   -2.99545789    0.75017297
 O         -0.51248699   -3.03520703   -0.85822701
 H         -0.92578501   -3.07543898    1.13354504
 H          0.23034200   -2.80730605   -1.43114197
 H         -1.76955700   -1.63544703   -1.19134903
 H         -2.98115611    1.34898698   -0.65902197
 H         -1.01333904    3.37401104   -0.08412300
 O          1.95648897    1.27635705   -0.85321999
 H          1.23991299    1.00249398    1.05056298
 C          3.26189899    0.84832698   -0.46109599
 H          3.46897197    1.15267396    0.57048398
 H          3.96710801    1.33544004   -1.13355899
 H          3.36288500   -0.23628600   -0.54877400
