27
wb97x-d4 ma-def2-tzvp(-f) cpcm(dmso) E: -727.0201176324, G: -726.82821413
 C         -0.42487100   -1.09748602    0.62122399
 C         -1.34771800   -0.48589501   -0.42541701
 O          0.83312303   -0.40874100    0.72595000
 C         -0.12724200   -2.55763197    0.32793900
 H         -0.93704700   -1.02511406    1.58972096
 C          0.85605502    0.95606202    0.39185601
 C         -0.47174600    1.66002297    0.66402203
 C         -1.66006196    0.97181100   -0.03680500
 H         -0.39823899    2.68797112    0.29937100
 O         -0.74139798    1.63526201    2.06371808
 O         -2.11209702    1.70237803   -1.16444302
 H         -2.47033691    0.95626199    0.69667399
 O         -0.82772398   -0.57747400   -1.74883902
 H         -2.27846289   -1.05609596   -0.43476000
 H         -1.07415199   -3.07631493    0.13916200
 O          0.59620500   -3.19434810    1.37792099
 H          0.49469599   -2.63232207   -0.56473899
 H          0.02820200   -3.22699904    2.15679598
 H          0.01721200   -0.09286600   -1.75724304
 H         -1.77457905    1.24121702   -1.94650304
 H         -0.04151900    2.12003112    2.51779008
 O          1.16028094    1.15044498   -0.97763300
 H          1.65661299    1.39745903    0.99626303
 C          2.50796199    0.79879200   -1.30682898
 H          2.64912105    1.04518402   -2.35836005
 H          2.68091798   -0.26907101   -1.15198100
 H          3.20680499    1.37746501   -0.69485402
