27
wb97x-d4 ma-def2-tzvp(-f) cpcm(dmso) E: -727.020003187638, G: -726.82801575
 C         -0.24739499   -1.02320397    0.86111802
 C         -1.26751494   -0.58709902   -0.18200900
 O          0.96395898   -0.24892201    0.82053399
 C          0.19406401   -2.47477794    0.70857000
 H         -0.71328598   -0.89367503    1.84536803
 C          0.88572502    1.06124103    0.31595099
 C         -0.46520600    1.72344899    0.58064198
 C         -1.65402400    0.88039899    0.07600500
 H         -0.47848901    2.69005609    0.07018700
 O         -0.64054400    1.88826501    1.98561096
 O         -2.26643395    1.44448900   -1.07161200
 H         -2.39121509    0.89363301    0.88259900
 O         -0.82942200   -0.78977901   -1.52216995
 H         -2.15961599   -1.20524204   -0.06737500
 H          0.64817899   -2.61957908   -0.27554601
 O         -0.88532102   -3.37981105    0.91697800
 H          0.94518000   -2.69052005    1.47088695
 H         -1.38337505   -3.45975399    0.09593500
 H         -0.01825600   -0.26362401   -1.64136696
 H         -1.93274200    0.95036900   -1.83469105
 H          0.06158800    2.46184397    2.31614709
 O          1.10717702    1.09655297   -1.08113599
 H          1.68799806    1.61732304    0.81366301
 C          2.45688105    0.78599501   -1.44325495
 H          3.14716911    1.46755397   -0.93650401
 H          2.53205109    0.92132401   -2.52140307
 H          2.70286989   -0.24650601   -1.18312395
