27
wb97x-d4 ma-def2-tzvp(-f) cpcm(dmso) E: -727.020186714949, G: -726.82797036
 C         -0.28759301   -1.08266902    0.70299500
 C         -1.26810896   -0.55721903   -0.33589199
 O          0.93240798   -0.32352901    0.75814402
 C          0.13977399   -2.52449298    0.45336699
 H         -0.78355598   -1.01742399    1.68020797
 C          0.87640500    1.02768099    0.37129799
 C         -0.48097399    1.67230701    0.64918399
 C         -1.65352702    0.88935399    0.02399200
 H         -0.47252700    2.68266010    0.23175400
 O         -0.70593798    1.70547605    2.05672789
 O         -2.20221806    1.55497599   -1.10179305
 H         -2.42798305    0.84805501    0.79410398
 O         -0.78198498   -0.65281302   -1.67127705
 H         -2.16114402   -1.18243098   -0.30182901
 H          0.55960900   -2.61122990   -0.54970199
 O         -0.96086198   -3.42384601    0.52140200
 H          0.91407901   -2.79227591    1.17946005
 H         -1.24053705   -3.49143505    1.44197500
 H          0.03490000   -0.12445600   -1.71840596
 H         -1.85309505    1.10458195   -1.88502800
 H         -0.01829600    2.24709392    2.46291399
 O          1.14568496    1.18432701   -1.00894797
 H          1.66365302    1.53167605    0.94329101
 C          2.50326490    0.88509703   -1.35091102
 H          2.61561108    1.10256505   -2.41218400
 H          2.72923899   -0.16769800   -1.16456401
 H          3.18371511    1.51566696   -0.77028102
