27
wb97x-d4 ma-def2-tzvp(-f) cpcm(dmso) E: -727.022148218589, G: -726.8279623
 C         -0.29745001   -1.01931000    0.98581100
 C         -1.65338099   -0.31528500    0.79350001
 O          0.72990698   -0.03839800    1.22525597
 C          0.09465100   -2.08699298   -0.02987200
 H         -0.35786301   -1.56193304    1.93359399
 C          0.87981600    1.01768398    0.30153799
 C         -0.44039601    1.73452306    0.00021800
 C         -1.63154805    0.79689300   -0.25319099
 H         -0.29771799    2.36636591   -0.87724000
 O         -0.73880202    2.61521006    1.08203399
 O         -1.68863702    0.29424199   -1.57855499
 H         -2.53403807    1.39934003   -0.12523700
 O         -2.69198203   -1.24721301    0.54084402
 H         -1.88657403    0.15354399    1.75382698
 H          1.06479394   -2.49448109    0.27262300
 O          0.14706001   -1.67538702   -1.39668298
 H         -0.64437401   -2.88726401    0.02565500
 H          0.82606399   -0.97781003   -1.45243597
 H         -2.77959704   -1.33372998   -0.41809401
 H         -1.04854798   -0.44179800   -1.66831398
 H         -0.73411900    2.11619091    1.90846395
 O          1.49246001    0.60785598   -0.90316898
 H          1.54241502    1.72610795    0.80698001
 C          2.89764595    0.35920399   -0.74989098
 H          3.07378197   -0.45693201   -0.04461700
 H          3.40005589    1.26530600   -0.39971200
 H          3.27637291    0.08406700   -1.73333502
