27
wb97x-d4 ma-def2-tzvp(-f) cpcm(dmso) E: -727.020050048939, G: -726.82782305
 C         -0.27111399   -1.10246801    0.66399598
 C         -1.23640096   -0.51211101   -0.35385600
 O          0.97130102   -0.38280901    0.73995799
 C          0.11205500   -2.54643607    0.36185899
 H         -0.76223201   -1.05690503    1.64453197
 C          0.95059299    0.98780698    0.41881099
 C         -0.38549501    1.64696300    0.73667002
 C         -1.57796896    0.93412697    0.05586200
 H         -0.35069701    2.68154907    0.38445199
 O         -0.49310401    1.59631705    2.15684891
 O         -2.07074308    1.66567004   -1.05471694
 H         -2.37615705    0.88954002    0.80276102
 O         -0.74912500   -0.57365602   -1.69067001
 H         -2.14666891   -1.11269403   -0.34323201
 H          0.52741998   -2.61002111   -0.64475697
 O         -1.01553595   -3.41351295    0.40085101
 H          0.87899500   -2.86328292    1.07596600
 H         -1.29746604   -3.50311303    1.31886899
 H          0.08302200   -0.06846600   -1.71621096
 H         -1.74197996    1.21759498   -1.84804499
 H         -1.27662003    2.09522510    2.41632199
 O          1.21226001    1.20056903   -0.95449197
 H          1.74944103    1.44455695    1.01072896
 C          2.56317210    0.89783603   -1.31800497
 H          2.77716494   -0.16409899   -1.17389703
 H          3.25591493    1.49748194   -0.71948498
 H          2.66996694    1.15433896   -2.37111807
