27
wb97x-d4 ma-def2-tzvp(-f) cpcm(dmso) E: -727.019346032381, G: -726.8276539
 C         -0.45718801   -1.06482506    0.67767501
 C         -1.45903003   -0.38083899   -0.26156500
 O          0.56502002   -0.17043801    1.16747701
 C          0.14134800   -2.31665206    0.06669300
 H         -1.00771594   -1.35936403    1.57577097
 C          0.84732699    0.96272600    0.38594800
 C         -0.38505700    1.84370506    0.13562800
 C         -1.66812801    1.03570998    0.26675501
 H         -0.31898800    2.24300909   -0.88096303
 O         -0.34011999    2.91021800    1.07925200
 O         -2.69405007    1.75351405   -0.40966901
 H         -1.90758705    0.95462900    1.33364797
 O         -1.09954202   -0.41620201   -1.63895500
 H         -2.40141010   -0.92893600   -0.19117400
 H         -0.67952198   -2.93436694   -0.31669700
 O          0.86235702   -3.01079798    1.08496904
 H          0.80049598   -2.06559706   -0.76743799
 H          1.28130305   -3.77798390    0.67962700
 H         -0.18573999   -0.09921700   -1.72159195
 H         -3.54637408    1.40015399   -0.12885000
 H         -1.10783601    3.47274208    0.91879302
 O          1.38695204    0.62022698   -0.87369299
 H          1.58527195    1.52763700    0.96258003
 C          2.69693995    0.05449300   -0.79101002
 H          2.69442201   -0.86849099   -0.20684101
 H          3.38464308    0.77366000   -0.33485100
 H          3.01220703   -0.15871400   -1.81151700
