27
wb97x-d4 ma-def2-tzvp(-f) cpcm(dmso) E: -727.019876753775, G: -726.82752635
 C         -0.49251601   -1.08206606    0.81106102
 C         -1.75889301   -0.26047099    0.50441301
 O          0.59434003   -0.23887300    1.24612999
 C         -0.03932700   -2.06162000   -0.26696000
 H         -0.71071303   -1.69013703    1.69300103
 C          0.86887002    0.93216598    0.50953001
 C         -0.36693400    1.79940796    0.28964400
 C         -1.49396896    0.97911298   -0.34139600
 H         -0.08993300    2.61916399   -0.38012600
 O         -0.75424200    2.29345489    1.56451905
 O         -1.22372496    0.63614798   -1.69925201
 H         -2.40638709    1.58225906   -0.35554501
 O         -2.77169490   -1.06361103   -0.08463300
 H         -2.15388799    0.08143300    1.46247399
 H         -0.88119298   -2.69497991   -0.54689902
 O          0.96341503   -2.93795109    0.25008699
 H          0.32752699   -1.55353701   -1.16057897
 H          1.65654194   -2.39268994    0.64112198
 H         -2.59567094   -1.09095395   -1.03522503
 H         -0.27118099    0.48179299   -1.78769398
 H         -1.45708394    2.94135809    1.43406296
 O          1.39863396    0.67277801   -0.77021301
 H          1.60175705    1.47188902    1.11708605
 C          2.75416088    0.22642100   -0.76383603
 H          3.39502406    0.98178703   -0.29836300
 H          3.04504609    0.08709800   -1.80405295
 H          2.86203504   -0.71937901   -0.22835501
