27
wb97x-d4 ma-def2-tzvp(-f) cpcm(dmso) E: -727.027311155093, G: -726.8367762199999
 C         -0.32071099   -1.22515702    0.43952399
 C         -1.67617702   -0.60521102    0.12432800
 O          0.71191698   -0.61124402   -0.33047199
 C         -0.25912899   -2.71129894    0.14326800
 H         -0.11925700   -1.06707299    1.50834596
 C          0.87202501    0.76845700   -0.03518600
 C         -0.40711600    1.51213098   -0.41207001
 C         -1.58835697    0.90215898    0.33865401
 H         -0.55737603    1.40830302   -1.48877394
 O         -0.32767400    2.90893006   -0.15598600
 O         -2.81837392    1.47197104   -0.09248000
 H         -1.44554806    1.08468795    1.41319895
 O         -2.04085588   -0.91102701   -1.21604896
 H         -2.41779709   -1.01765299    0.82032800
 H         -1.05353403   -3.22206211    0.69082099
 O          0.97558701   -3.27738500    0.57495397
 H         -0.40647399   -2.87911105   -0.92769402
 H          1.68100798   -2.82042789    0.10067700
 H         -2.76958203   -0.32004499   -1.44702101
 H         -2.69226694    2.42746091   -0.15609799
 H         -0.15642899    3.04076695    0.78597701
 O          1.92664599    1.25788796   -0.78829998
 H          1.08092594    0.88279599    1.04293704
 C          3.20401502    0.82458800   -0.31677499
 H          3.33626390    1.10370100    0.73408002
 H          3.95183492    1.33104599   -0.92589003
 H          3.31643796   -0.25719300   -0.42429999
