27
wb97x-d4 ma-def2-tzvp(-f) cpcm(dmso) E: -727.020840770717, G: -726.82711232
 C         -0.21003300   -0.95287102    0.93112099
 C         -1.58726501   -0.37661201    0.53954202
 O          0.71533400    0.08495900    1.30344999
 C          0.38147101   -1.94631898   -0.07670700
 H         -0.34320199   -1.52080798    1.85480297
 C          0.84916699    1.17223704    0.41235200
 C         -0.49452701    1.86527598    0.20704700
 C         -1.52608705    0.87637502   -0.33956400
 H         -0.37173900    2.68797493   -0.49940699
 O         -0.93312901    2.43216491    1.43375003
 O         -1.27812004    0.53867900   -1.70387805
 H         -2.50960302    1.35110700   -0.32189301
 O         -2.37975502   -1.37228096   -0.10398100
 H         -2.10621905   -0.10417400    1.46182299
 H          0.28725401   -1.60374403   -1.10983503
 O         -0.22656700   -3.22862005    0.07649200
 H          1.44092798   -2.07315898    0.14881000
 H         -1.17641497   -3.09156394   -0.04534200
 H         -2.26878691   -1.23007298   -1.05675805
 H         -0.32072100    0.44016799   -1.81939805
 H         -0.78367901    1.78959799    2.13968706
 O          1.33233297    0.78763199   -0.84807199
 H          1.55382395    1.84976304    0.90460598
 C          2.72624302    0.46634001   -0.85938799
 H          3.31474900    1.35922599   -0.62755603
 H          2.96165299    0.11952700   -1.86441302
 H          2.95289493   -0.32080200   -0.13729100
