27
wb97x-d4 ma-def2-tzvp(-f) cpcm(dmso) E: -727.018698405059, G: -726.82705555
 C         -0.47237101   -1.24610102    0.62950402
 C         -1.79456401   -0.44523299    0.50387502
 O          0.57216901   -0.41543001    1.15981603
 C         -0.05850500   -1.94480097   -0.66583699
 H         -0.58814698   -2.01740003    1.39276302
 C          0.93382400    0.72163099    0.39950699
 C         -0.25962400    1.34410000   -0.31593701
 C         -1.50812495    1.06228900    0.51032001
 H         -0.36982000    0.90437597   -1.31373000
 O         -0.01140900    2.73771501   -0.43198499
 O         -2.61854196    1.79861403    0.02459700
 H         -1.33215594    1.39401901    1.53626096
 O         -2.47953606   -0.73220199   -0.71884203
 H         -2.45089507   -0.68257499    1.34332800
 H         -0.81770498   -2.68368101   -0.92156798
 O          1.16298497   -2.65428090   -0.49258900
 H          0.02204000   -1.24268198   -1.49872804
 H          1.84857702   -1.99581003   -0.32924101
 H         -3.13653302   -1.41589499   -0.55204701
 H         -3.01528692    1.25535500   -0.67345202
 H         -0.83919197    3.14016199   -0.72682202
 O          1.93311203    0.42577100   -0.54321098
 H          1.31966496    1.43991995    1.13103998
 C          3.23621106    0.33159101    0.03653900
 H          3.27815795   -0.46031499    0.79112202
 H          3.51852489    1.28362405    0.49782199
 H          3.92714500    0.09723600   -0.77250803
