27
wb97x-d4 ma-def2-tzvp(-f) cpcm(dmso) E: -727.018380631134, G: -726.82691316
 C         -0.46193200   -1.31860602    0.73380399
 C         -1.82425594   -0.60050601    0.56910098
 O          0.54667699   -0.40206099    1.19075894
 C         -0.01415800   -2.08382201   -0.51101202
 H         -0.52917802   -2.03894997    1.55025494
 C          0.82609499    0.71139401    0.36278701
 C         -0.41181901    1.20884895   -0.38065699
 C         -1.61817896    0.91681600    0.49160200
 H         -0.51495898    0.69111198   -1.33823001
 O         -0.34539199    2.61310291   -0.59944701
 O         -2.80433989    1.48979795   -0.04018600
 H         -1.43631995    1.30687594    1.49927795
 O         -2.46565390   -1.06922698   -0.61192501
 H         -2.45717192   -0.82083601    1.43479705
 H         -0.74039203   -2.86754799   -0.72344500
 O          1.23330700   -2.73024893   -0.28048801
 H          0.04895800   -1.43407905   -1.38653803
 H          1.88466096   -2.03768992   -0.11880500
 H         -3.11414409   -0.39154100   -0.84974003
 H         -2.56237793    2.34818697   -0.41340101
 H          0.15592900    2.77506900   -1.40667605
 O          1.83355498    0.43575901   -0.57582301
 H          1.16544497    1.49628699    1.04779303
 C          3.14577699    0.44845000   -0.01008200
 H          3.36598110    1.43044198    0.42144400
 H          3.84280109    0.23976600   -0.82087398
 H          3.25108790   -0.31679499    0.76571000
