27
wb97x-d4 ma-def2-tzvp(-f) cpcm(dmso) E: -727.01844475751, G: -726.826815
 C         -0.43012199   -1.07271194    0.49998900
 C         -1.78460002   -0.36787999    0.29354200
 O          0.58898902   -0.43558800   -0.28713500
 C         -0.42419899   -2.53765106    0.11759200
 H         -0.14695799   -0.98639601    1.55592096
 C          0.92670101    0.83727503    0.25938299
 C         -0.33387199    1.69167697    0.48992199
 C         -1.53907394    1.06549704   -0.21265300
 H         -0.15207900    2.68698192    0.07576500
 O         -0.54895401    1.75959301    1.89651799
 O         -1.35506797    1.07537305   -1.62847996
 H         -2.42737389    1.67276895   -0.02623400
 O         -2.65859008   -1.04730499   -0.59886199
 H         -2.29788303   -0.32657099    1.25527298
 H         -1.21524501   -3.06011200    0.65724403
 O          0.80881399   -3.15820599    0.47571400
 H         -0.61078602   -2.64024591   -0.95587498
 H          1.51348805   -2.66519690    0.03753300
 H         -2.46059608   -0.71995902   -1.48783803
 H         -0.53347498    0.59933698   -1.81806898
 H         -1.25676000    2.39371300    2.06247807
 O          1.75339997    1.48852098   -0.64586502
 H          1.44159102    0.67852700    1.21835303
 C          3.03780103    0.87367803   -0.77957302
 H          3.49795794    0.73980498    0.20535800
 H          3.64625001    1.54905605   -1.37968600
 H          2.96063900   -0.09398100   -1.28031301
