27
wb97x-d4 ma-def2-tzvp(-f) cpcm(dmso) E: -727.026489010777, G: -726.83667311
 C         -0.13206901   -1.22880900    0.39017799
 C         -1.52478099   -0.67515898    0.10515900
 O          0.86116499   -0.51619703   -0.34289500
 C          0.02995000   -2.69093490    0.01246800
 H          0.05311000   -1.11754298    1.46795499
 C          0.91859901    0.85127902    0.03295300
 C         -0.40127900    1.53254402   -0.30936000
 C         -1.53742301    0.81934702    0.40533599
 H         -0.54734099    1.47404599   -1.39322603
 O         -0.41789499    2.88525510    0.12884501
 O         -2.80442905    1.33091295    0.00513100
 H         -1.40238798    0.95384198    1.48657799
 O         -1.86518598   -0.92787302   -1.25300598
 H         -2.23808503   -1.17288899    0.77155799
 H         -0.17911200   -2.82031298   -1.05315399
 O         -0.87617099   -3.45104504    0.80782300
 H          1.06603599   -2.98617196    0.20855001
 H         -0.83927298   -4.36610222    0.50927103
 H         -2.62765908   -0.37096700   -1.45681500
 H         -2.75259709    2.29466891    0.03040400
 H          0.19160800    3.38674593   -0.42530999
 O          1.92876196    1.47161901   -0.68811798
 H          1.11675596    0.92140698    1.11519897
 C          3.24129009    1.15249002   -0.22139899
 H          3.93797708    1.74466395   -0.81350499
 H          3.45773697    0.08990800   -0.35744101
 H          3.34270191    1.41527295    0.83682102
