27
wb97x-d4 ma-def2-tzvp(-f) cpcm(dmso) E: -727.019921451312, G: -726.82671662
 C         -0.12407000   -1.37132800    0.53908801
 C         -1.22460198   -0.43489501    1.08092105
 O          0.96459502   -0.62692499   -0.02924700
 C         -0.56037903   -2.37743807   -0.51651901
 H          0.25243801   -1.95011902    1.39142299
 C          0.93680698    0.77986997    0.17748301
 C         -0.32442701    1.36201298   -0.45150700
 C         -1.58803594    0.71388900    0.13396201
 H         -0.27751699    1.13846004   -1.52383399
 O         -0.39377201    2.76614189   -0.24113600
 O         -2.51150799    0.29014200   -0.86147499
 H         -2.11345601    1.47196400    0.71802801
 O         -2.37742209   -1.16858399    1.45548999
 H         -0.83486700    0.01636300    1.99674201
 H          0.25951201   -3.08162498   -0.68510598
 O         -0.92507201   -1.76415706   -1.75755000
 H         -1.42943704   -2.93375301   -0.16608000
 H         -0.12565599   -1.36550999   -2.12565088
 H         -2.98060989   -1.14384496    0.69836497
 H         -2.06529999   -0.39976001   -1.39159799
 H          0.41076401    3.15287995   -0.61010200
 O          2.02938604    1.33165801   -0.48066700
 H          0.99386501    1.01098597    1.25068998
 C          3.26306105    1.16899395    0.22296800
 H          3.52776098    0.11208500    0.30881801
 H          3.19262409    1.61250603    1.22158003
 H          4.02531815    1.68998694   -0.35508800
