27
wb97x-d4 ma-def2-tzvp(-f) cpcm(dmso) E: -727.017935304034, G: -726.82668825
 C         -0.33094001   -1.12240601    0.45445201
 C         -1.64590800   -0.31630000    0.64454401
 O          0.58127898   -0.40581200   -0.39412501
 C         -0.51520902   -2.48580289   -0.18314300
 H          0.15700300   -1.25561297    1.42760801
 C          0.90622002    0.85465401    0.18268999
 C         -0.31167600    1.78188896    0.11861400
 C         -1.58603895    0.97855902   -0.16883700
 H         -0.16956399    2.49245596   -0.70163602
 O         -0.38578999    2.45761108    1.36845601
 O         -1.71040905    0.68654901   -1.56128097
 H         -2.45245290    1.59387195    0.08434000
 O         -2.81693006   -1.04830801    0.30138701
 H         -1.75030100   -0.06018200    1.70030403
 H         -1.18589699   -3.08905101    0.42710000
 O          0.72569799   -3.18236089   -0.25790200
 H         -0.95561302   -2.37722898   -1.18102598
 H          1.34389305   -2.61611009   -0.73641002
 H         -2.91908407   -0.98244798   -0.65819401
 H         -0.90384001    0.22340700   -1.82875705
 H         -1.01311803    3.18531609    1.28311896
 O          1.95690894    1.41878295   -0.52344698
 H          1.18786097    0.68950701    1.23440301
 C          3.20613098    0.76026303   -0.29700699
 H          3.19330406   -0.25497201   -0.70034897
 H          3.42802811    0.72571999    0.77488899
 H          3.96644592    1.34800696   -0.80979300
