27
wb97x-d4 ma-def2-tzvp(-f) cpcm(dmso) E: -727.017718814927, G: -726.82640595
 C         -0.19886000   -1.14001000    0.98866898
 C         -1.44616401   -0.71241802    0.21815100
 O          0.77005601   -0.09228900    1.15228903
 C          0.42849001   -2.43961692    0.49509001
 H         -0.54246199   -1.34940505    2.00722098
 C          0.81183797    0.98326802    0.23825800
 C         -0.56891102    1.58160996   -0.10008100
 C         -1.69830203    0.75746000    0.48928800
 H         -0.67317998    1.59214902   -1.18670297
 O         -0.71397799    2.90482402    0.41432199
 O         -2.95108199    1.11020803   -0.08631800
 H         -1.72275996    0.91037399    1.57560694
 O         -1.29384804   -0.96242100   -1.18107998
 H         -2.28773403   -1.30107796    0.59750801
 H          1.21843803   -2.72727489    1.19262099
 O          1.02293599   -2.38279009   -0.79233098
 H         -0.35304001   -3.21132302    0.53506899
 H          0.39025399   -1.93448603   -1.37005198
 H         -2.09737802   -0.66677499   -1.62578905
 H         -3.03516293    2.07075596   -0.03605300
 H         -0.24957500    3.51304603   -0.17234001
 O          1.44136095    0.65344697   -0.97076797
 H          1.40557802    1.74030805    0.76349699
 C          2.82049394    0.33502099   -0.80579501
 H          2.94443893   -0.57358301   -0.21395400
 H          3.34855700    1.16616702   -0.32316801
 H          3.22999811    0.17483200   -1.80315995
