27
wb97x-d4 ma-def2-tzvp(-f) cpcm(dmso) E: -727.019564078695, G: -726.82634693
 C         -0.39237899   -1.04945397    0.70159203
 C         -1.72105896   -0.30291000    0.46346900
 O          0.60283297   -0.14876600    1.22603703
 C          0.11074700   -1.89668798   -0.46715000
 H         -0.56253499   -1.74596095    1.52830005
 C          0.82608598    1.06384599    0.53680998
 C         -0.46472999    1.86452305    0.38421401
 C         -1.54694796    1.01500499   -0.28702000
 H         -0.26391801    2.74535894   -0.22816201
 O         -0.89989299    2.33704305    1.65169001
 O         -1.27284503    0.78505898   -1.66873205
 H         -2.49376202    1.55863595   -0.24703500
 O         -2.68643808   -1.12152100   -0.17887799
 H         -2.13271594   -0.06884200    1.44850194
 H         -0.71330601   -2.52968597   -0.80773002
 O          1.22719395   -2.70046997   -0.08719800
 H          0.44830099   -1.29242897   -1.30480504
 H          0.92651898   -3.34215093    0.56719798
 H         -2.51945090   -1.06409001   -1.12983298
 H         -0.31369799    0.70089698   -1.77693999
 H         -0.83597302    1.61714101    2.29236698
 O          1.36394203    0.89132202   -0.74982399
 H          1.53395903    1.60855997    1.17046106
 C          2.69368410    0.36345601   -0.74906802
 H          2.71233296   -0.64498901   -0.33172601
 H          3.35256910    1.01764905   -0.16910499
 H          3.02148199    0.33946201   -1.78743398
