27
wb97x-d4 ma-def2-tzvp(-f) cpcm(dmso) E: -727.018519470044, G: -726.82616447
 C         -0.14747000   -1.09423804    0.45951700
 C         -1.57290399   -0.50763297    0.32794100
 O          0.77791399   -0.33486199   -0.32774901
 C         -0.03225000   -2.53661299   -0.01416300
 H          0.15702400   -1.03563595    1.51157904
 C          0.98682201    0.95468098    0.24481501
 C         -0.34923801    1.69629097    0.43549201
 C         -1.49161398    0.92268300   -0.22499400
 H         -0.26671699    2.68007398   -0.03431400
 O         -0.56644499    1.82041299    1.83762705
 O         -1.33699298    0.90438700   -1.64393103
 H         -2.43629599    1.43712604   -0.03613900
 O         -2.43770909   -1.28971004   -0.49325699
 H         -2.03511691   -0.48403099    1.31486905
 H         -0.18725200   -2.57635903   -1.09764194
 O         -0.94957602   -3.38454604    0.66507697
 H          0.97211099   -2.90346789    0.20348200
 H         -1.82849002   -3.12812591    0.35329801
 H         -2.29047608   -1.00977695   -1.40795803
 H         -0.47241199    0.51173800   -1.83421004
 H         -1.32632601    2.39865804    1.97515595
 O          1.79230499    1.68569100   -0.61647499
 H          1.47423899    0.82366502    1.22224700
 C          3.13386989    1.19496000   -0.68791002
 H          3.56335402    1.11900997    0.31685799
 H          3.69941497    1.91774201   -1.27458799
 H          3.17023301    0.21788099   -1.17463100
