27
wb97x-d4 ma-def2-tzvp(-f) cpcm(dmso) E: -727.017774696471, G: -726.82612173
 C         -0.31942901   -1.10882401    0.73461998
 C         -1.55328500   -0.55676699    0.01081300
 O          0.64055800   -0.09700400    1.07844901
 C          0.31586900   -2.27949405   -0.00508600
 H         -0.65924799   -1.47258997    1.70898998
 C          0.83176899    0.97812200    0.18689699
 C         -0.48284000    1.66440105   -0.23117700
 C         -1.68541706    0.92185903    0.33275101
 H         -0.54330099    1.65418899   -1.31853604
 O         -0.51457602    3.04155993    0.13499300
 O         -2.89749503    1.39431298   -0.24442400
 H         -1.71152604    1.04352999    1.42369294
 O         -1.44471395   -0.75949901   -1.39741004
 H         -2.43464899   -1.08816302    0.38545901
 H         -0.47030500   -3.00302505   -0.24877000
 O          1.35135198   -2.89633107    0.75611401
 H          0.77195001   -1.94221401   -0.93357801
 H          0.95517302   -3.27862692    1.54816997
 H         -2.21676707   -0.34285399   -1.80017197
 H         -2.87369299    2.35953808   -0.22411799
 H         -0.46045300    3.10633111    1.09737504
 O          1.51659298    0.60736901   -0.98127699
 H          1.44258499    1.68600500    0.76008499
 C          2.85163999    0.17314100   -0.73067302
 H          3.39984608    0.93059999   -0.15870599
 H          3.32665610    0.03670200   -1.70190001
 H          2.86370802   -0.77226597   -0.18258099
