27
wb97x-d4 ma-def2-tzvp(-f) cpcm(dmso) E: -727.016549005666, G: -726.82603086
 C         -0.21817100   -1.07081294    0.90491199
 C         -1.46861100   -0.61034697    0.14553700
 O          0.70500898   -0.00741600    1.18848097
 C          0.50973201   -2.23797703    0.25340500
 H         -0.55425698   -1.39769995    1.89249897
 C          0.82623702    1.03921902    0.25088799
 C         -0.52783000    1.66486895   -0.13916200
 C         -1.68358302    0.86434799    0.43487000
 H         -0.60418898    1.66775799   -1.22796094
 O         -0.66070902    2.99528694    0.36123899
 O         -2.92227411    1.25678205   -0.14781000
 H         -1.71313000    1.01185405    1.52143502
 O         -1.33656394   -0.83744198   -1.25519896
 H         -2.32283092   -1.17878103    0.52645802
 H          0.77016598   -1.99923801   -0.77938497
 O         -0.36161399   -3.36796808    0.31497300
 H          1.42765105   -2.42553496    0.82057899
 H          0.04135300   -4.08299589   -0.18906000
 H         -2.12491798   -0.46826899   -1.67216897
 H         -2.97433090    2.21958089   -0.09726800
 H         -0.17534700    3.59081006   -0.22140799
 O          1.48086703    0.64056897   -0.92536199
 H          1.42909098    1.79045796    0.77331299
 C          2.84912801    0.30014601   -0.71309602
 H          3.38716793    1.14098704   -0.26036999
 H          3.27563310    0.07931400   -1.69128704
 H          2.94632411   -0.57749999   -0.06904900
