27
wb97x-d4 ma-def2-tzvp(-f) cpcm(dmso) E: -727.018243467865, G: -726.82602372
 C         -0.19636600   -1.06362605    0.53965801
 C         -1.61905396   -0.50331998    0.30975899
 O          0.75513703   -0.35871401   -0.26713300
 C         -0.05156600   -2.53534007    0.17815900
 H          0.06505500   -0.92334902    1.59528804
 C          0.94102299    0.97563601    0.20256101
 C         -0.41285801    1.70262301    0.36484799
 C         -1.52447903    0.90088600   -0.30657300
 H         -0.33392999    2.68168306   -0.11531900
 O         -0.77508599    1.83602405    1.73431599
 O         -1.30920196    0.81809300   -1.71441197
 H         -2.47512507    1.42019296   -0.17897400
 O         -2.43503809   -1.33475196   -0.51253200
 H         -2.12865305   -0.43747500    1.27109694
 H         -0.15690400   -2.65398502   -0.90537602
 O         -0.99364698   -3.34116793    0.87448603
 H          0.94402999   -2.87648702    0.46653101
 H         -1.85801697   -3.12422109    0.49905199
 H         -2.24737597   -1.09616804   -1.43155396
 H         -0.43766901    0.41913301   -1.85222101
 H         -0.16809200    2.45870590    2.15121007
 O          1.70574605    1.65800297   -0.73405302
 H          1.45717597    0.93102401    1.17410302
 C          3.05471110    1.18991601   -0.81581599
 H          3.58535695    1.88040602   -1.47016203
 H          3.09733105    0.18187401   -1.23394406
 H          3.51749706    1.19440806    0.17699800
