27
wb97x-d4 ma-def2-tzvp(-f) cpcm(dmso) E: -727.017974707382, G: -726.82577766
 C         -0.26789701   -0.98651999    0.86960602
 C         -1.61181295   -0.27232999    0.68363899
 O          0.72659302   -0.04396900    1.27681804
 C          0.20197099   -1.85061598   -0.30247399
 H         -0.36965701   -1.66040397    1.72530997
 C          0.93036097    1.07682002    0.43769300
 C         -0.36476299    1.83925295    0.13225700
 C         -1.52972698    0.93182498   -0.25237101
 H         -0.16515900    2.53043008   -0.69208902
 O         -0.78552699    2.54598689    1.29627395
 O         -1.38176596    0.54470003   -1.61222100
 H         -2.45063901    1.51520598   -0.13345399
 O         -2.63724303   -1.15230703    0.22844300
 H         -1.90402496    0.10897100    1.66684103
 H          0.17728999   -1.30932200   -1.24559605
 O         -0.68717998   -2.98165894   -0.34894899
 H          1.22368598   -2.18380094   -0.09920200
 H         -0.57110202   -3.42451000   -1.19724202
 H         -2.21378493   -1.96891296   -0.08811300
 H         -2.07593298   -0.10463200   -1.78521597
 H         -0.12446800    3.21847606    1.49845397
 O          1.55624604    0.74450499   -0.76993603
 H          1.58933604    1.72584295    1.02759802
 C          2.91997790    0.36116999   -0.60060501
 H          3.00630093   -0.54610199    0.00286800
 H          3.48641896    1.16854405   -0.12280500
 H          3.32250404    0.17335600   -1.59553003
