27
wb97x-d4 ma-def2-tzvp(-f) cpcm(dmso) E: -727.017169198584, G: -726.82571832
 C         -0.40669799   -1.00792694    0.69367999
 C         -1.69095898   -0.18720099    0.51601899
 O          0.63089502   -0.14610100    1.18204498
 C          0.01197800   -1.85332298   -0.50644499
 H         -0.57894200   -1.70251596    1.52373898
 C          0.92770398    1.01176906    0.42716700
 C         -0.31145999    1.84628201    0.07478700
 C         -1.49866700    1.01186097   -0.39781001
 H         -0.03399600    2.54495907   -0.71991801
 O         -0.76071697    2.54690790    1.23135805
 O         -1.27929902    0.62656099   -1.74901700
 H         -2.39269710    1.64258397   -0.33055201
 O         -2.76371598   -0.95440298   -0.02055600
 H         -1.96080005    0.20146400    1.50371599
 H         -0.86591500   -2.39418197   -0.87145901
 O          1.05485797   -2.76870990   -0.16154900
 H          0.39850399   -1.23282397   -1.30889201
 H          0.69760400   -3.40989804    0.46390900
 H         -2.98603392   -1.65687799    0.60196102
 H         -1.98610401    0.01313100   -1.98577297
 H         -0.08466500    3.18913698    1.47726297
 O          1.62841594    0.74436098   -0.75650102
 H          1.56514299    1.60012901    1.09993005
 C          2.92062497    0.18649900   -0.52946800
 H          3.48832297    0.80947101    0.17179500
 H          3.43000507    0.16874200   -1.49280798
 H          2.84661198   -0.82989800   -0.13661800
