27
wb97x-d4 ma-def2-tzvp(-f) cpcm(dmso) E: -727.017582556593, G: -726.82570455
 C         -0.36196899   -1.04784405    0.70711303
 C         -1.66678905   -0.27157599    0.51498199
 O          0.64765698   -0.15459400    1.19597197
 C          0.08780600   -1.88433504   -0.48892200
 H         -0.52070200   -1.74282002    1.53781199
 C          0.91669798    1.01114094    0.44323200
 C         -0.34333199    1.81344104    0.09268000
 C         -1.50144100    0.94490403   -0.38957599
 H         -0.08308700    2.52840710   -0.69353497
 O         -0.82062799    2.48976994    1.25291097
 O         -1.26730597    0.56490803   -1.73853195
 H         -2.41443610    1.55035603   -0.32689601
 O         -2.64989209   -1.15952003   -0.01668000
 H         -1.97638094    0.08536700    1.50161695
 H         -0.77026498   -2.45405698   -0.85621202
 O          1.15651500   -2.76581407   -0.13569000
 H          0.46006301   -1.25442898   -1.29097497
 H          0.81890500   -3.40761900    0.49999601
 H         -3.52025700   -0.79469001    0.18374100
 H         -1.91693604   -0.11981800   -1.94582403
 H         -0.16059799    3.14184809    1.51620400
 O          1.62336600    0.76419002   -0.74100697
 H          1.53965902    1.61298203    1.11781800
 C          2.92792201    0.23478100   -0.51694798
 H          3.43383694    0.22547300   -1.48228097
 H          2.87675405   -0.78205901   -0.12152400
 H          3.48483896    0.87160498    0.18052299
