27
wb97x-d4 ma-def2-tzvp(-f) cpcm(dmso) E: -727.017462622393, G: -726.82568064
 C         -0.69975400   -1.29682004    0.67177302
 C         -1.46527898   -0.44753101   -0.34903401
 O          0.39763999   -0.58762902    1.29658997
 C         -0.20073301   -2.61840796    0.11188700
 H         -1.38455498   -1.50984299    1.49695599
 C          0.93884802    0.48896900    0.59272701
 C         -0.10747100    1.56894195    0.25891000
 C         -1.50774598    0.97434098    0.20585699
 H          0.12689300    1.98908305   -0.72443300
 O         -0.00448500    2.58485508    1.25259602
 O         -2.31813693    1.86120701   -0.55726898
 H         -1.88450503    0.91201502    1.23358297
 O         -0.96052700   -0.51585102   -1.67783701
 H         -2.48399210   -0.83932298   -0.40063101
 H         -1.05039597   -3.18161607   -0.28083801
 O          0.39023700   -3.41661096    1.13499105
 H          0.51109898   -2.44927597   -0.69928801
 H          1.13244104   -2.91404009    1.49291694
 H         -0.00596700   -0.33800501   -1.64499402
 H         -3.24299312    1.63749695   -0.39974999
 H         -0.65668303    3.26524806    1.04439998
 O          1.55033803   -0.00816300   -0.59165400
 H          1.70488596    0.92155498    1.24297595
 C          2.60054708    0.82818002   -1.07739699
 H          3.39299202    0.91162801   -0.32681200
 H          2.23478007    1.82787395   -1.33129895
 H          2.99252200    0.35172400   -1.97492695
