27
wb97x-d4 ma-def2-tzvp(-f) cpcm(dmso) E: -727.016402608678, G: -726.82563134
 C         -0.21129800   -1.06736803    0.84631097
 C         -1.46817696   -0.59595299    0.10326600
 O          0.70746797   -0.00513600    1.14756799
 C          0.51737899   -2.21924400    0.16906600
 H         -0.54021603   -1.41530097    1.82907605
 C          0.83985400    1.04969895    0.21997800
 C         -0.51025802    1.67159903   -0.18609400
 C         -1.67052901    0.88015199    0.40052599
 H         -0.58399302    1.64840603   -1.27238095
 O         -0.59869599    3.04881597    0.16989100
 O         -2.90941310    1.28432798   -0.17231201
 H         -1.69283605    1.02004194    1.48946404
 O         -1.35096896   -0.81553900   -1.29991198
 H         -2.32260489   -1.16106701    0.48867401
 H          0.76387203   -1.96501100   -0.86322802
 O         -0.34435999   -3.35653591    0.22613700
 H          1.44397402   -2.40701103    0.72202897
 H          0.02209300   -4.03882313   -0.34633100
 H         -2.14298391   -0.44293201   -1.70682895
 H         -2.93841004    2.24940705   -0.15553500
 H         -0.53933901    3.12362289    1.13121700
 O          1.51375496    0.66481501   -0.94898999
 H          1.43450499    1.79718494    0.75821602
 C          2.88025093    0.32657701   -0.72025800
 H          2.97054696   -0.56850600   -0.09970700
 H          3.40407801    1.15734196   -0.23374800
 H          3.32630992    0.13643500   -1.69609296
