27
wb97x-d4 ma-def2-tzvp(-f) cpcm(dmso) E: -727.017965526499, G: -726.82558263
 C         -0.42709199   -1.12102401    1.09324503
 C         -1.36224902   -0.57932597    0.00664800
 O          0.61327201   -0.19624899    1.47197497
 C          0.20167699   -2.46482897    0.72757000
 H         -1.03177404   -1.24915898    1.99501705
 C          0.97891599    0.75573403    0.51777399
 C         -0.20138100    1.66014600    0.10726400
 C         -1.53907394    0.91869497    0.21573500
 H         -0.05199400    1.96679199   -0.92966300
 O         -0.21203101    2.86814690    0.85938299
 O         -2.51525903    1.46134198   -0.66216099
 H         -1.92589498    1.06315994    1.22927403
 O         -0.96434200   -0.88453102   -1.32975602
 H         -2.33303499   -1.06061995    0.13405199
 H          0.90665698   -2.34079599   -0.09733100
 O         -0.79854500   -3.42736697    0.40723699
 H          0.74893999   -2.84460306    1.59225595
 H         -1.13547099   -3.20792699   -0.47048301
 H         -0.03326900   -0.62102503   -1.42909205
 H         -2.28835893    1.16807699   -1.55506504
 H         -0.42321700    2.65469599    1.77727103
 O          1.52079105    0.08040900   -0.61115903
 H          1.75698400    1.36852503    0.98305702
 C          2.44756603    0.86736202   -1.35954106
 H          1.97113895    1.75564599   -1.78577101
 H          2.81480408    0.23525199   -2.16679907
 H          3.28223991    1.17347205   -0.72093803
