27
wb97x-d4 ma-def2-tzvp(-f) cpcm(dmso) E: -727.027156262801, G: -726.8361561099999
 C         -0.33380401   -1.17352104    0.37583500
 C         -1.66417897   -0.48366401    0.08734000
 O          0.69411898   -0.54008198   -0.38543999
 C         -0.35093200   -2.64918995    0.02087400
 H         -0.11698900   -1.06539094    1.44876504
 C          0.92371202    0.80104101    0.03386300
 C         -0.31993899    1.63123596   -0.25259399
 C         -1.53323901    0.99899900    0.43032700
 H         -0.47092199    1.64044297   -1.34034598
 O         -0.11104800    2.95187998    0.22532301
 O         -2.71211910    1.72357094    0.10213100
 H         -1.40430903    1.09438598    1.51273000
 O         -2.07990193   -0.65504301   -1.26721096
 H         -2.45113611   -0.92406398    0.70377702
 H         -1.23474598   -3.10768795    0.47822601
 O          0.83867902   -3.32096195    0.42234901
 H         -0.42196900   -2.76846504   -1.06112194
 H          0.86527699   -3.33609104    1.38628602
 H         -1.31760800   -0.50364298   -1.84168196
 H         -2.96912694    1.44981694   -0.78974301
 H         -0.96060997    3.40813398    0.16942200
 O          1.98984396    1.30939698   -0.69011199
 H          1.14886200    0.80477399    1.11274600
 C          3.25253892    0.77182400   -0.29091200
 H          4.01437378    1.31191397   -0.85182297
 H          3.31581903   -0.29450399   -0.52117503
 H          3.40935493    0.92489302    0.78216302
