27
wb97x-d4 ma-def2-tzvp(-f) cpcm(dmso) E: -727.01843009823, G: -726.82554192
 C         -0.30160901   -1.05916703    0.76946503
 C         -1.65291703   -0.37280399    0.51985699
 O          0.66750902   -0.11180800    1.24499297
 C          0.26909599   -1.90144300   -0.38162100
 H         -0.43925399   -1.74543297    1.61094999
 C          0.81496400    1.09106600    0.52371198
 C         -0.51156098    1.82644498    0.30769500
 C         -1.54258895    0.89336997   -0.32970199
 H         -0.32822001    2.67311001   -0.36108401
 O         -1.04273498    2.26652908    1.54985094
 O         -1.23833799    0.63797802   -1.69772899
 H         -2.51588702    1.39047205   -0.31663099
 O         -2.62851405   -1.26768994    0.00245300
 H         -2.01422405   -0.04251800    1.49790895
 H          0.36138901   -1.34288502   -1.30820203
 O         -0.58626199   -3.01244497   -0.67834002
 H          1.26214302   -2.25147009   -0.08613800
 H         -0.55315202   -3.63085103    0.06278400
 H         -2.16769409   -1.96695399   -0.48690099
 H         -0.27581501    0.62626302   -1.79644299
 H         -0.49752200    2.99337506    1.87279105
 O          1.38081205    0.89909297   -0.75144398
 H          1.48675001    1.69613302    1.14278197
 C          2.75226498    0.50000900   -0.72273302
 H          2.87081599   -0.47033000   -0.23580900
 H          3.34863091    1.25041103   -0.19394401
 H          3.08192205    0.43154600   -1.75852299
