27
wb97x-d4 ma-def2-tzvp(-f) cpcm(dmso) E: -727.0163813014, G: -726.82547115
 C         -0.37398899   -1.26845002    0.66778803
 C         -1.75580096   -0.60669899    0.41959599
 O          0.58266199   -0.31724599    1.15439403
 C          0.14129800   -2.06699991   -0.52838600
 H         -0.47136000   -1.96498799    1.50361705
 C          0.82458001    0.83506697    0.37275800
 C         -0.44035900    1.35675097   -0.30662301
 C         -1.63561106    0.91518801    0.51567900
 H         -0.52012199    0.93777001   -1.31384802
 O         -0.44172999    2.77940011   -0.37305599
 O         -2.84542799    1.47576106    0.02179200
 H         -1.48870099    1.20437503    1.56208897
 O         -2.25005603   -0.96900398   -0.86734200
 H         -2.46141005   -0.95000601    1.18292296
 H         -0.62839103   -2.78374004   -0.82586700
 O          1.36161900   -2.73805308   -0.22264799
 H          0.34968400   -1.41722000   -1.37683403
 H          1.17561698   -3.40845895    0.44528300
 H         -2.94810390   -0.33113599   -1.07143903
 H         -2.64425397    2.37871408   -0.25883901
 H          0.04011400    3.05207205   -1.16194904
 O          1.79631197    0.64070499   -0.61927301
 H          1.17845297    1.58265495    1.09254599
 C          3.10799789    0.45024601   -0.09341200
 H          3.78911901    0.41981900   -0.94357800
 H          3.17565799   -0.48937401    0.46011499
 H          3.38220191    1.28285003    0.56451398
