27
wb97x-d4 ma-def2-tzvp(-f) cpcm(dmso) E: -727.019769819196, G: -726.82541468
 C         -0.56347799   -1.36945903    1.02753794
 C         -1.76233399   -0.53492200    0.50197500
 O          0.50010097   -0.53252298    1.52223301
 C         -0.06245800   -2.43790007    0.06297700
 H         -0.88539302   -1.89982295    1.92548895
 C          1.00442302    0.48386401    0.70941502
 C         -0.09357000    1.24257505   -0.05036900
 C         -1.44555497    0.95888799    0.58851498
 H         -0.11465300    0.90934801   -1.09509003
 O          0.21966700    2.62933612    0.00165500
 O         -2.46211696    1.72400701   -0.04396800
 H         -1.41905499    1.26897395    1.63575697
 O         -2.17044997   -0.86557603   -0.82490301
 H         -2.63303995   -0.73489898    1.12855899
 H          0.79343200   -2.94322300    0.52070802
 O          0.28331399   -1.93738699   -1.23020101
 H         -0.85723197   -3.17146492   -0.08472100
 H          1.04077697   -1.33524597   -1.10567200
 H         -1.37496805   -1.09515297   -1.33664203
 H         -2.70818400    1.23470402   -0.84346700
 H         -0.53999501    3.09785104   -0.36919999
 O          1.97774100   -0.09065800   -0.15656400
 H          1.51053798    1.18357098    1.38316798
 C          2.77947497    0.87744200   -0.83577502
 H          3.56034994    0.32492501   -1.35656595
 H          3.23288798    1.56596899   -0.11539600
 H          2.18977594    1.44678104   -1.55945694
