27
wb97x-d4 ma-def2-tzvp(-f) cpcm(dmso) E: -727.01804373204, G: -726.82499954
 C         -0.74008101   -1.20720398    0.79351199
 C         -1.84443796   -0.22017400    0.37253901
 O          0.36895499   -0.51258701    1.40227199
 C         -0.28439400   -2.17634201   -0.30196500
 H         -1.12460899   -1.81690598    1.61407697
 C          0.91749698    0.57383901    0.70781499
 C         -0.14529701    1.63519704    0.42667800
 C         -1.31680405    1.02398801   -0.34606901
 H          0.29377699    2.43739104   -0.17030400
 O         -0.58024502    2.22491193    1.64414203
 O         -0.96312398    0.73285502   -1.69738698
 H         -2.12573910    1.75676000   -0.39228001
 O         -2.83983588   -0.86153102   -0.41110700
 H         -2.34154105    0.11757000    1.28530002
 H         -1.09718394   -2.87912512   -0.48773599
 O          0.83176899   -2.94447207    0.13181800
 H         -0.05312700   -1.66925299   -1.23977697
 H          1.53712904   -2.31753111    0.33658901
 H         -2.53913403   -0.82568300   -1.33016503
 H         -0.04646100    0.41706899   -1.70071197
 H         -0.73331201    1.52534604    2.29211402
 O          1.50516498    0.11820200   -0.50113797
 H          1.68965006    0.98147702    1.36752701
 C          2.68207598    0.84208000   -0.87034601
 H          3.05432701    0.38637799   -1.78673697
 H          3.43778396    0.76102698   -0.08318700
 H          2.45719600    1.89671803   -1.05547297
