27
wb97x-d4 ma-def2-tzvp(-f) cpcm(dmso) E: -727.015322437368, G: -726.82498607
 C         -0.32528201   -1.37047601    0.52974099
 C         -1.34719896   -0.36158001    1.06141806
 O          0.95262599   -0.74000001    0.33024400
 C         -0.72842401   -2.08433795   -0.75349897
 H         -0.17066000   -2.13093805    1.30139601
 C          0.97810102    0.68042201    0.25158000
 C         -0.21151599    1.22049201   -0.53624600
 C         -1.53794706    0.83399498    0.11941900
 H         -0.17253201    0.77272397   -1.53527796
 O         -0.15456700    2.63685989   -0.62704498
 O         -2.52074599    0.48124999   -0.85604399
 H         -1.89644802    1.68378699    0.70604002
 O         -2.58303809   -0.98508400    1.35601699
 H         -0.94981498    0.02471000    2.00363803
 H         -1.66467404   -2.62247109   -0.59642202
 O          0.25068700   -3.05827403   -1.11178994
 H         -0.86972201   -1.37190402   -1.57094502
 H          1.08710802   -2.58793211   -1.21935296
 H         -3.13967800   -0.86955702    0.57140702
 H         -3.04236889    1.26345694   -1.06465399
 H          0.67352998    2.86524105   -1.06855404
 O          2.13034105    1.05339706   -0.43545899
 H          1.00142801    1.10692096    1.26529205
 C          3.32701707    0.91039300    0.33151001
 H          4.13569880    1.32860506   -0.26673099
 H          3.53394890   -0.14215501    0.54061300
 H          3.24412894    1.46245599    1.27370501
