27
wb97x-d4 ma-def2-tzvp(-f) cpcm(dmso) E: -727.026683569459, G: -726.83579735
 C         -0.18705100   -1.18716097    0.35402700
 C         -1.55479896   -0.56710702    0.09033500
 O          0.79608202   -0.48817500   -0.40852201
 C         -0.08469100   -2.65267992   -0.04922200
 H          0.03431600   -1.08991599    1.42669404
 C          0.96138799    0.85752898    0.03071100
 C         -0.33050600    1.62456596   -0.21340400
 C         -1.49927998    0.91171902    0.46814501
 H         -0.49937600    1.65556097   -1.29808700
 O         -0.18080901    2.94093394    0.29767701
 O         -2.71860194    1.58022404    0.16879600
 H         -1.36276698    0.98951101    1.55104601
 O         -1.96974099   -0.72487402   -1.26557899
 H         -2.31012201   -1.06503999    0.70039397
 H         -0.28947800   -2.75550604   -1.11592305
 O         -1.04013503   -3.45585895    0.63170999
 H          0.93551201   -2.99952698    0.14292000
 H         -0.78133303   -3.51588202    1.55889797
 H         -1.21545696   -0.53513199   -1.83905494
 H         -2.97297502    1.30790102   -0.72425598
 H         -1.04980099    3.36027408    0.25313100
 O          1.98034000    1.43639100   -0.70754099
 H          1.21101499    0.85318702    1.10400903
 C          3.28016996    0.96087700   -0.35128599
 H          3.99602509    1.54436302   -0.92898500
 H          3.39084101   -0.09859900   -0.59480798
 H          3.46123409    1.11242294    0.71817303
