27
wb97x-d4 ma-def2-tzvp(-f) cpcm(dmso) E: -727.016265458746, G: -726.82390077
 C         -0.68553299   -1.33568799    0.79472703
 C         -1.85148299   -0.41129699    0.35716701
 O          0.31897500   -0.58371598    1.49787903
 C         -0.09429800   -2.14867711   -0.35888001
 H         -1.03954899   -2.03580499    1.55257297
 C          0.96575999    0.42929801    0.78027201
 C         -0.00597600    1.20599103   -0.11892800
 C         -1.41393995    1.05273497    0.44739100
 H          0.02664500    0.80295801   -1.13853300
 O          0.39015901    2.57140589   -0.12417000
 O         -2.32566905    1.90459394   -0.22777800
 H         -1.40630198    1.36501396    1.49383795
 O         -2.25156593   -0.63965100   -0.99733001
 H         -2.71150589   -0.56362599    1.01217997
 H         -0.84424400   -2.86499810   -0.69703603
 O          1.03905904   -2.89410400    0.06734100
 H          0.16595700   -1.50904298   -1.20481205
 H          1.73132503   -2.24221992    0.24737500
 H         -2.98509312   -1.26324797   -1.00182605
 H         -2.61647010    1.41823006   -1.01416302
 H         -0.33651301    3.06419992   -0.52889901
 O          2.03606796   -0.17389899    0.07429200
 H          1.37412405    1.12167501    1.52648497
 C          2.94671893    0.76109201   -0.49864900
 H          2.48615599    1.31107605   -1.32411802
 H          3.79155803    0.18509500   -0.87447602
 H          3.29563498    1.47260797    0.25807500
