27
wb97x-d4 ma-def2-tzvp(-f) cpcm(dmso) E: -727.015485317489, G: -726.82375768
 C         -0.43793300   -1.30020106    0.85740697
 C         -1.47179699   -0.50316799    0.04361000
 O          0.61857200   -0.49454901    1.40316498
 C          0.14228800   -2.48111296    0.08342400
 H         -0.95691401   -1.68271804    1.74131799
 C          1.08296597    0.59179598    0.65580100
 C         -0.04661300    1.52514005    0.17156300
 C         -1.42098403    0.94684500    0.48526099
 H          0.03662100    1.64251101   -0.91299099
 O          0.13456900    2.78744888    0.80868697
 O         -2.44409394    1.73249304   -0.11577400
 H         -1.58999705    0.99455202    1.56359601
 O         -1.24987495   -0.51873398   -1.36590099
 H         -2.46337605   -0.91082102    0.25768301
 H          0.72302300   -2.12428689   -0.76492399
 O         -0.90119600   -3.29980302   -0.44754499
 H          0.79996401   -3.05609012    0.74214703
 H         -1.34841895   -3.73997402    0.28528500
 H         -1.47040403   -1.40423203   -1.67993104
 H         -2.41645503    1.55619502   -1.06605804
 H         -0.59385401    3.35618711    0.52838397
 O          1.86774397    0.10483100   -0.41605899
 H          1.72375798    1.15755200    1.34214699
 C          2.74426198    1.09512496   -0.94185901
 H          3.33576703    0.61455703   -1.72039902
 H          3.40996790    1.47634995   -0.15838701
 H          2.19240808    1.93410599   -1.37965000
