27
wb97x-d4 ma-def2-tzvp(-f) cpcm(dmso) E: -727.015646221763, G: -726.82350504
 C         -0.64454800   -1.42652500    0.76993400
 C         -1.84309101   -0.54725403    0.34516701
 O          0.32666200   -0.63037002    1.47224903
 C         -0.01946200   -2.21411705   -0.38407201
 H         -0.96440703   -2.14393711    1.52632904
 C          0.94314802    0.39565200    0.74745101
 C         -0.03993800    1.11678898   -0.18601801
 C         -1.44332600    0.93660903    0.36734301
 H          0.01497500    0.68566102   -1.19228005
 O          0.32301399    2.49077511   -0.22395401
 O         -2.33216810    1.70238400   -0.44577500
 H         -1.46771502    1.30520797    1.39614201
 O         -2.27572393   -0.92316401   -0.95718002
 H         -2.66591907   -0.69096398    1.05369306
 H         -0.74119502   -2.95693302   -0.72465599
 O          1.14017701   -2.91579890    0.04707300
 H          0.21930200   -1.56556594   -1.22939301
 H          1.81000495   -2.23931789    0.22074300
 H         -2.79019690   -0.17487200   -1.29177797
 H         -3.05703402    2.02351308    0.10299800
 H         -0.39107600    2.95285797   -0.68244398
 O          2.05077195   -0.17215300    0.07175800
 H          1.30755901    1.11948597    1.48640597
 C          2.95309091    0.79092598   -0.46844900
 H          3.25118303    1.51251996    0.30036700
 H          2.50682902    1.32713902   -1.31038904
 H          3.82908392    0.24145199   -0.81126702
