27
wb97x-d4 ma-def2-tzvp(-f) cpcm(dmso) E: -727.014990973101, G: -726.82348273
 C         -0.45273501   -1.24616599    0.96434498
 C         -1.50021803   -0.48282501    0.13501300
 O          0.61717600   -0.42078200    1.44742000
 C          0.10664400   -2.46163511    0.23698799
 H         -0.95472002   -1.58694696    1.87345302
 C          1.07136095    0.62823302    0.64195001
 C         -0.06382100    1.54143202    0.13268401
 C         -1.43331301    0.98644900    0.50418299
 H         -0.00112900    1.60091901   -0.95784098
 O          0.13508099    2.83495688    0.69862700
 O         -2.46660995    1.74772096   -0.11103300
 H         -1.57752001    1.08704495    1.58242500
 O         -1.30788505   -0.56842399   -1.27615905
 H         -2.48823690   -0.87511301    0.39052701
 H          0.68920302   -2.14574194   -0.63040298
 O         -1.01684296   -3.25310397   -0.16406700
 H          0.75580198   -3.01918101    0.91898298
 H         -0.68602902   -4.03323793   -0.62294400
 H         -1.49335504   -1.48110199   -1.53169203
 H         -2.46140409    1.52699006   -1.05229604
 H         -0.59786397    3.39094710    0.40491700
 O          1.83807194    0.08966000   -0.41792500
 H          1.72406900    1.22349095    1.29089606
 C          2.71461391    1.05030894   -0.99647200
 H          3.38667607    1.46630096   -0.23634300
 H          2.16313696    1.86939597   -1.47093999
 H          3.29984403    0.53040498   -1.75429904
