27
wb97x-d4 ma-def2-tzvp(-f) cpcm(dmso) E: -727.013879729281, G: -726.82213092
 C         -0.37952501   -1.34436595    1.01858997
 C         -1.62522304   -0.68409902    0.37436700
 O          0.54044300   -0.36830300    1.53127897
 C          0.32365301   -2.35497403    0.10901100
 H         -0.69938499   -1.88122106    1.91238701
 C          1.00244200    0.63041598    0.66594797
 C         -0.11221800    1.17960799   -0.24544100
 C         -1.46314704    0.83149803    0.36039299
 H         -0.03553100    0.72135401   -1.23344505
 O          0.00836000    2.58116198   -0.46345699
 O         -2.53112411    1.37263203   -0.40646100
 H         -1.51020396    1.20771205    1.38955498
 O         -1.78960598   -1.16613197   -0.95996100
 H         -2.51456499   -0.94001299    0.95783198
 H          0.64629501   -1.88896406   -0.82374603
 O         -0.51778603   -3.47663498   -0.14646199
 H          1.20547903   -2.72549510    0.63391203
 H         -1.23862803   -3.15000796   -0.70183998
 H         -2.47288203   -0.62043703   -1.37077904
 H         -2.25150108    2.24593711   -0.71193802
 H          0.00929800    3.03057003    0.39197901
 O          2.10131907    0.11704800   -0.05808600
 H          1.35461903    1.44065106    1.31924903
 C          2.83551693    1.12303603   -0.75097197
 H          2.26269102    1.53667200   -1.58625197
 H          3.73677206    0.64510399   -1.13388205
 H          3.11443806    1.93724406   -0.07177700
