34
wb97x-d4 ma-def2-tzvp(-f) cpcm(dmso) E: -955.835225486904, G: -955.60006025
 C          0.04316900   -2.87063098    1.35166395
 C         -0.36427900   -1.66590297    0.52485198
 H         -0.46840900   -3.75698709    0.95837599
 O         -0.24160300   -2.70878291    2.73979998
 H          1.11932302   -3.02083206    1.26437998
 O         -1.78336596   -1.53151095    0.68740797
 C          0.31622201   -0.37163499    0.95244098
 H         -0.12529400   -1.87251699   -0.52399498
 C         -0.20303901    0.79970002    0.11210800
 O          1.71386695   -0.53969401    0.82892799
 H          0.03973500   -0.17356899    1.99742305
 C         -2.36879206   -0.53460503   -0.12764400
 H         -1.18773401   -2.53666091    2.81874895
 O          0.22231001    0.73285401   -1.23644602
 O         -2.26448703   -0.83261800   -1.48990703
 H          2.14947796    0.35082299    0.81814402
 H          1.07255399    1.23933101   -1.29042006
 C         -3.03835297   -1.96567905   -1.87047505
 C         -1.73040998    0.82997698    0.15952000
 H         -3.42533708   -0.51943099    0.16674700
 H         -2.03140402    1.09557498    1.17625797
 O         -2.24031997    1.83117294   -0.70380902
 H         -1.73502600    1.74157906   -1.52480495
 H          0.16068600    1.73413396    0.55684900
 H         -2.63762999   -2.88398004   -1.43163705
 H         -2.99044108   -2.03291702   -2.95729399
 H         -4.08189821   -1.84189796   -1.55764198
 O          2.45020890    2.18849397   -1.34312105
 O          3.01358700    1.80149806    0.78870100
 C          4.16862679    3.53011107   -0.37290701
 C          3.12305498    2.42572498   -0.30207601
 H          5.13911819    3.07159209   -0.58598697
 H          4.24617577    4.04775381    0.58424002
 H          3.93970490    4.23953295   -1.16842306
