34
wb97x-d4 ma-def2-tzvp(-f) cpcm(dmso) E: -955.832777632316, G: -955.59823559
 C          0.31211001   -2.47783208    1.33293605
 C         -0.31937301   -1.27949500    0.66496199
 H          1.34471905   -2.23063707    1.59169805
 O          0.27193400   -3.58464193    0.42868200
 H         -0.23729201   -2.71139789    2.25325489
 O         -1.72171700   -1.55311704    0.53387201
 C         -0.15175900   -0.00046800    1.48684394
 H          0.12434800   -1.14569902   -0.32753000
 C         -0.84168702    1.16515195    0.77111000
 O          1.19449198    0.28734100    1.79920101
 H         -0.66667801   -0.15383300    2.44265509
 C         -2.43894196   -0.57723302   -0.19232100
 H          0.70687801   -4.32998705    0.85694200
 O         -0.21793400    1.50106704   -0.45280901
 O         -2.04215503   -0.50495303   -1.53250802
 H          1.72354698    0.47625899    0.98409098
 H          0.64037800    1.96888602   -0.28530499
 C         -2.36005497   -1.68257403   -2.26694393
 C         -2.29525900    0.79895598    0.47326100
 H         -3.48463011   -0.90483397   -0.13787501
 H         -2.82857108    0.73260897    1.42478895
 O         -2.93270993    1.81120396   -0.28727701
 H         -2.32341599    2.01556301   -1.01052296
 H         -0.83727598    2.03285599    1.44426000
 H         -3.42794299   -1.91548002   -2.17884302
 H         -1.77575696   -2.53773403   -1.91543996
 H         -2.11660409   -1.48193097   -3.31030297
 O          2.09056091    2.81750894   -0.27842599
 O          2.98634696    0.77631098   -0.14559799
 C          4.39095497    2.56592798   -0.87075001
 C          3.05380297    2.00932598   -0.40515700
 H          4.97511387    2.83917499    0.01348400
 H          4.25297117    3.46066308   -1.47839200
 H          4.95160198    1.81303799   -1.42604303
