34
wb97x-d4 ma-def2-tzvp(-f) cpcm(dmso) E: -955.83497359215, G: -955.59788524
 C         -1.14776897   -2.98027706    2.06016588
 C         -0.74976701   -1.77941895    1.21036994
 H         -1.86216700   -2.65625191    2.82866907
 O         -0.02151200   -3.61941290    2.65228510
 H         -1.64198804   -3.71655989    1.42255199
 O         -1.93524206   -1.37720501    0.52077699
 C         -0.23653400   -0.60914898    2.05283189
 H          0.02148300   -2.08169293    0.49362701
 C          0.06375000    0.59575498    1.16583705
 O          0.93202603   -0.98001498    2.78469706
 H         -1.00607395   -0.34353101    2.78316402
 C         -1.73454297   -0.32033601   -0.40426099
 H          0.54147500   -2.91246390    3.00369596
 O          1.22440302    0.27964199    0.42148301
 O         -0.90376103   -0.69077402   -1.46542001
 H          1.67234802   -0.84166503    2.17316508
 H          1.64428794    1.12131703    0.09519100
 C         -1.49382305   -1.67298102   -2.31238294
 C         -1.16976702    0.90959603    0.31429401
 H         -2.73823309   -0.09397000   -0.78439701
 H         -1.95424795    1.20752096    1.01859796
 O         -0.98205900    2.00086999   -0.55645603
 H         -0.19908100    1.86628997   -1.14022601
 H          0.25915700    1.46725202    1.80460203
 H         -0.81451303   -1.81952405   -3.15191293
 H         -2.46532297   -1.32694602   -2.68459201
 H         -1.62901103   -2.62111497   -1.78415501
 O          2.43740797    2.46327901   -0.45003101
 O          1.13305700    2.22907901   -2.24958801
 C          3.00571609    3.70235705   -2.40865493
 C          2.12860799    2.71551490   -1.65083897
 H          2.60840988    4.70841885   -2.24255991
 H          2.98135591    3.49969411   -3.47981000
 H          4.03193092    3.67670488   -2.04072094
