34
wb97x-d4 ma-def2-tzvp(-f) cpcm(dmso) E: -955.832601589177, G: -955.59780237
 C          0.33518699   -2.45802903    1.28122604
 C         -0.30925500   -1.24119699    0.66048598
 H          1.34997106   -2.19683194    1.59177697
 O          0.36197999   -3.51030803    0.31389901
 H         -0.23855001   -2.76064205    2.16586709
 O         -1.70083797   -1.53874397    0.47727600
 C         -0.19115201   -0.00267600    1.55121899
 H          0.15592299   -1.04545295   -0.31150100
 C         -0.89111000    1.18332303    0.88050097
 O          1.14077902    0.29986501    1.90720296
 H         -0.72426403   -0.21522000    2.48552799
 C         -2.42190599   -0.53989702   -0.21352600
 H          0.80535698   -4.26605701    0.71430397
 O         -0.25362700    1.59497797   -0.31261200
 O         -1.99472904   -0.38565499   -1.53793299
 H          1.69355500    0.47016901    1.10200799
 H          0.62347698    2.01212907   -0.12145300
 C         -2.28063512   -1.52344298   -2.34473109
 C         -2.32793093    0.80006897    0.53056002
 H         -3.46100211   -0.89192200   -0.20390899
 H         -2.87940311    0.66739202    1.46465504
 O         -2.97700095    1.83626997   -0.18664500
 H         -2.36667705    2.08723998   -0.89383602
 H         -0.92052299    2.01485205    1.59747803
 H         -3.34829402   -1.76963902   -2.29983401
 H         -1.69775105   -2.39185905   -2.02469110
 H         -2.01053190   -1.26350498   -3.36827588
 O          2.14504600    2.76673698   -0.17627400
 O          2.91234708    0.67202401   -0.07342600
 C          4.35804796    2.34346008   -0.97493702
 C          3.03638196    1.89304602   -0.37041599
 H          4.23207283    3.25430799   -1.56064403
 H          4.78907490    1.55320704   -1.59112298
 H          5.05597687    2.55200791   -0.15821899
