34
wb97x-d4 ma-def2-tzvp(-f) cpcm(dmso) E: -955.834423623095, G: -955.59711154
 C          0.53858900   -2.28695893    1.23818898
 C         -0.16837101   -1.05146801    0.69356799
 H          0.00037700   -2.64728904    2.12529802
 O          1.90572405   -2.03468299    1.54361606
 H          0.51382399   -3.07327008    0.48040900
 O         -1.46634805   -1.50128901    0.28670499
 C         -0.32644901    0.04193700    1.75485504
 H          0.38401899   -0.66604102   -0.16894400
 C         -1.18904805    1.20114100    1.25340605
 O          0.92392498    0.47511300    2.26507211
 H         -0.86582100   -0.40840301    2.59638596
 C         -2.25435209   -0.49687001   -0.32399201
 H          1.91584504   -1.20587397    2.04875588
 O         -0.54202998    2.07524109    0.34692699
 O         -1.66673303    0.01133500   -1.48541403
 H          1.46998203    0.89713597    1.54739594
 H          0.09476800    1.61762798   -0.25794300
 C         -1.51651394   -0.96409601   -2.51122308
 C         -2.49363804    0.65240198    0.65887499
 H         -3.20067596   -0.99548203   -0.56831598
 H         -3.09863210    0.24352100    1.47240901
 O         -3.24230599    1.69653296    0.06211600
 H         -2.60125995    2.21273208   -0.44789001
 H         -1.45817804    1.81839395    2.11724997
 H         -2.47554207   -1.45152104   -2.72320294
 H         -0.78188801   -1.72387505   -2.22913098
 H         -1.17021894   -0.43811899   -3.40076399
 O          1.42353499    1.21073198   -1.27527905
 O          2.72257304    1.37546504    0.53527200
 C          3.78926110    1.08843005   -1.57632399
 C          2.54861999    1.24790096   -0.70930499
 H          4.06614780    0.02950300   -1.58205795
 H          4.62631083    1.65268004   -1.16300404
 H          3.59450197    1.39741504   -2.60371709
