34
wb97x-d4 ma-def2-tzvp(-f) cpcm(dmso) E: -955.831414014053, G: -955.59685903
 C          0.71232897   -1.93831003    1.26391101
 C         -0.19233200   -0.82642698    0.75401199
 H          1.45338404   -1.51144004    1.94752598
 O          1.35192502   -2.63734698    0.20820700
 H          0.10683000   -2.65524006    1.82588804
 O         -1.41806996   -1.43525600    0.32748100
 C         -0.48889500    0.22473200    1.82077301
 H          0.29005599   -0.34230199   -0.10049200
 C         -1.48072696    1.26441002    1.28844905
 O          0.68962502    0.87937301    2.26074791
 H         -0.94708699   -0.27076799    2.68572807
 C         -2.32327294   -0.54913002   -0.29297501
 H          1.95688796   -1.98048794   -0.21430600
 O         -0.86890602    2.09711194    0.30978200
 O         -1.82713902   -0.00944100   -1.48563302
 H          1.39425397    0.79712802    1.57620800
 H         -0.08828400    2.48191690    0.72775698
 C         -1.66477299   -0.98734802   -2.50857806
 C         -2.69605088    0.58350903    0.66837901
 H         -3.21033597   -1.15839303   -0.50594503
 H         -3.25465703    0.11552200    1.48306096
 O         -3.57574201    1.51385200    0.05994700
 H         -3.07663488    1.95240402   -0.64102000
 H         -1.82411695    1.88455999    2.12642789
 H         -1.39790404   -0.45291999   -3.42017293
 H         -2.60005903   -1.53700995   -2.66717196
 H         -0.86955398   -1.69407701   -2.25421500
 O          2.74491906    0.88818198    0.51390302
 O          2.96558690   -0.80274397   -0.94357401
 C          4.07918978    1.25785804   -1.41392803
 C          3.19201589    0.37194100   -0.54684901
 H          4.50316095    0.70406801   -2.25141907
 H          4.88155794    1.68133199   -0.80548698
 H          3.48282099    2.09073997   -1.79642296
