34
wb97x-d4 ma-def2-tzvp(-f) cpcm(dmso) E: -955.832195939182, G: -955.59622501
 C          0.49931499   -2.28059912    1.24714601
 C         -0.20744801   -1.01765704    0.76257002
 H          0.11064900   -2.56712699    2.23014688
 O          1.90351105   -2.13956189    1.36246598
 H          0.24574500   -3.08223891    0.54048097
 O         -1.52187395   -1.44012296    0.36915800
 C         -0.36968800    0.07229000    1.82361603
 H          0.32613200   -0.62614399   -0.10915500
 C         -1.11655903    1.27055800    1.23098099
 O          0.84323001    0.45279801    2.44260001
 H         -1.00461197   -0.34247300    2.61457109
 C         -2.28346801   -0.43847901   -0.27188301
 H          2.23586106   -1.56358194    0.63537902
 O         -0.38761899    1.96422303    0.22465700
 O         -1.73264301   -0.05334400   -1.49990904
 H          1.48353302    0.72743398    1.74728000
 H          0.56863499    1.78936505    0.30128899
 C         -1.77383006   -1.09102905   -2.47444892
 C         -2.43952107    0.79189199    0.63105297
 H         -3.26479506   -0.89908099   -0.43809500
 H         -3.08622503    0.48492199    1.45688403
 O         -3.11869192    1.83683503   -0.04533500
 H         -2.53321004    2.12427902   -0.75841999
 H         -1.34557903    1.96856701    2.04695201
 H         -1.43902194   -0.65656000   -3.41622806
 H         -2.79568100   -1.47147202   -2.58920288
 H         -1.11192203   -1.91697395   -2.19842410
 O          2.33223701    1.36707795    0.37826899
 O          2.95868802   -0.55903202   -0.57373601
 C          3.64639306    1.49072194   -1.59630704
 C          2.92611504    0.69339198   -0.52019203
 H          2.92947197    2.14225793   -2.10217690
 H          4.12579107    0.83738399   -2.32467103
 H          4.39707708    2.13147712   -1.12731600
