34
wb97x-d4 ma-def2-tzvp(-f) cpcm(dmso) E: -955.831968792288, G: -955.59613582
 C         -0.07956400   -2.71854901    2.02938700
 C         -0.15032101   -1.38454700    1.31533098
 H          0.71656501   -2.69394588    2.77317905
 O          0.22364600   -3.78173709    1.12859297
 H         -1.03249300   -2.90700412    2.54017305
 O         -1.21991801   -1.50559998    0.36721000
 C         -0.43484899   -0.22473200    2.27025294
 H          0.79004401   -1.19971502    0.78546399
 C         -0.60881299    1.07634199    1.48406994
 O          0.60623097   -0.08691100    3.22994494
 H         -1.35387599   -0.43811399    2.82377100
 C         -1.38493204   -0.37237599   -0.46838099
 H         -0.41815600   -3.73267508    0.40889499
 O          0.68459898    1.44827402    1.03274405
 O         -0.28011101   -0.14554000   -1.29099298
 H          1.32734394    0.37568501    2.78008604
 H          0.63894099    2.00945401    0.22090399
 C         -0.09195800   -1.15599096   -2.27517390
 C         -1.66000497    0.86514300    0.38970000
 H         -2.26567698   -0.60411698   -1.07900596
 H         -2.59277606    0.64282602    0.91832900
 O         -1.91856301    2.01363707   -0.39061201
 H         -1.08317602    2.36228299   -0.77868301
 H         -0.99378002    1.84789598    2.16490507
 H          0.19478101   -2.10737205   -1.81728995
 H          0.70887601   -0.81326699   -2.93002009
 H         -1.00704503   -1.29898405   -2.86163712
 O          0.57186300    2.53795004   -3.38980794
 O          0.49188700    2.92837310   -1.19242096
 C          2.39815307    1.77774894   -2.03778696
 C          1.05259001    2.46010494   -2.24307990
 H          2.24965096    0.88685298   -1.42342198
 H          3.07223606    2.44589305   -1.49647295
 H          2.84860897    1.49271500   -2.98814988
