34
wb97x-d4 ma-def2-tzvp(-f) cpcm(dmso) E: -955.832724968412, G: -955.59610931
 C          0.60529000   -2.12765503    1.41320503
 C         -0.16880400   -0.93580699    0.87671000
 H          1.27788496   -1.78733301    2.20533895
 O          1.34356403   -2.78589892    0.38805699
 H         -0.09024000   -2.85498095    1.83917105
 O         -1.39761305   -1.41936600    0.31700501
 C         -0.47214299    0.11975900    1.94253504
 H          0.42467901   -0.47962299    0.08281300
 C         -1.29736805    1.26681304    1.34580302
 O          0.71321398    0.59890199    2.55552411
 H         -1.07862902   -0.34422401    2.72798395
 C         -2.11570501   -0.42654300   -0.38630900
 H          2.01102901   -2.13452792    0.09672500
 O         -0.54780900    2.14857602    0.51334602
 O         -1.39514804    0.08909900   -1.47176600
 H          1.35732400    0.79051900    1.83368599
 H          0.35232601    1.81514394    0.34671900
 C         -1.14722705   -0.87854302   -2.48743105
 C         -2.49387789    0.71413797    0.56357902
 H         -3.01931691   -0.93268800   -0.74658298
 H         -3.20155692    0.29224300    1.28210700
 O         -3.17403197    1.75415897   -0.11926800
 H         -2.49624300    2.23128295   -0.61777300
 H         -1.69035900    1.87261903    2.16978598
 H         -0.69812697   -0.34739000   -3.32645798
 H         -2.08410406   -1.34785402   -2.80941510
 H         -0.45891401   -1.65228295   -2.13596201
 O          3.02047896   -0.63961703   -0.30055201
 O          2.14223909    1.30667198    0.37075600
 C          3.19034791    1.24787700   -1.76132596
 C          2.76211095    0.57598698   -0.46474800
 H          3.66246295    2.20922589   -1.54972398
 H          2.29578400    1.44535601   -2.35955906
 H          3.86847997    0.61596000   -2.33397508
