34
wb97x-d4 ma-def2-tzvp(-f) cpcm(dmso) E: -955.832126339546, G: -955.59609704
 C          0.91425103   -1.51017404   -0.41931099
 C         -0.32435200   -0.61667401   -0.37775800
 H          1.43095005   -1.47999203    0.54790902
 O          1.79611802   -1.17397404   -1.47481704
 H          0.56669402   -2.53585291   -0.57935202
 O         -1.34153497   -1.38628101    0.28586301
 C         -0.13092200    0.68988001    0.39094901
 H         -0.63327497   -0.40329000   -1.40559196
 C         -1.44166505    1.47041202    0.46243101
 O          0.83390999    1.52367795   -0.22085300
 H          0.17222400    0.43620601    1.41527796
 C         -2.61795592   -0.78563201    0.27862701
 H          2.52774906   -0.61331499   -1.12454796
 O         -1.78991401    1.99389303   -0.81759602
 O         -3.13743496   -0.63568902   -1.01336896
 H          1.70364797    1.38980198    0.24488901
 H         -1.00298405    2.44940495   -1.14364100
 C         -3.43886399   -1.87867200   -1.64042699
 C         -2.57366109    0.58249497    0.96651602
 H         -3.25354290   -1.46921098    0.85408598
 H         -2.37940693    0.38430601    2.02335191
 O         -3.83228803    1.23291302    0.90587598
 H         -4.00440311    1.42307603   -0.02535100
 H         -1.31499505    2.30162001    1.16768098
 H         -3.92949510   -1.64653003   -2.58536410
 H         -4.11380816   -2.47226191   -1.01303399
 H         -2.52832890   -2.45286298   -1.83405697
 O          3.07434106    1.16683495    1.13047099
 O          3.98970103    0.14076500   -0.63257402
 C          5.42581415    0.76782298    1.16641796
 C          4.05698109    0.67614901    0.50628603
 H          5.33649302    0.74723297    2.25322390
 H          5.88226986    1.72091699    0.88231498
 H          6.07768917   -0.03699500    0.82547402
