34
wb97x-d4 ma-def2-tzvp(-f) cpcm(dmso) E: -955.832596128348, G: -955.5960523
 C          0.65299600   -2.08698511    1.33111203
 C         -0.13574301   -0.92290998    0.77663398
 H          1.52725601   -1.69986105    1.86088395
 O          1.05515206   -2.92784405    0.24749200
 H          0.02759400   -2.64368606    2.03975797
 O         -1.38640201   -1.44247401    0.30297199
 C         -0.41087899    0.14231600    1.84413695
 H          0.41741699   -0.48630300   -0.06036100
 C         -1.30512094    1.25559497    1.28737104
 O          0.76762998    0.65551102    2.42612505
 H         -0.97945201   -0.34371799    2.64633393
 C         -2.19152498   -0.48347899   -0.35131201
 H          1.54933703   -3.66781902    0.61658001
 O         -0.64661300    2.16196394    0.42013001
 O         -1.57194996    0.05546500   -1.48381197
 H          1.42206395    0.88479102    1.71657598
 H          0.06357900    1.74406600   -0.12691100
 C         -1.34813905   -0.90693498   -2.50845599
 C         -2.54343796    0.64989102    0.61523098
 H         -3.09679198   -1.02991700   -0.64421701
 H         -3.17468190    0.20896100    1.39148998
 O         -3.30742311    1.65905797   -0.02271000
 H         -2.66454101    2.20390797   -0.49932101
 H         -1.65416801    1.85716701    2.13360906
 H         -2.28526497   -1.40992999   -2.77507997
 H         -0.61510998   -1.65531397   -2.19423389
 H         -0.96562600   -0.36599299   -3.37392807
 O          1.45622897    1.48272300   -1.12336695
 O          2.73332691    1.09311402    0.66970301
 C          3.79168200    1.19290102   -1.47200000
 C          2.56623507    1.25803602   -0.57037699
 H          3.60165811    0.51464999   -2.30669188
 H          4.67451811    0.86705399   -0.92230302
 H          3.97619104    2.18599606   -1.89105904
