34
wb97x-d4 ma-def2-tzvp(-f) cpcm(dmso) E: -955.830885463208, G: -955.59598134
 C         -1.08229697   -2.97576499    2.13277888
 C         -0.63659602   -1.81208801    1.26812899
 H         -1.34593999   -3.81791091    1.48292696
 O         -2.17775202   -2.64145207    2.98335695
 H         -0.25959799   -3.27952909    2.78032494
 O         -1.76804996   -1.46158004    0.45950300
 C         -0.18116900   -0.59530902    2.07819700
 H          0.18792300   -2.15064311    0.63122803
 C          0.16111900    0.56236202    1.14332604
 O          0.93937802   -0.92074603    2.89099407
 H         -0.98918003   -0.29320499    2.74772811
 C         -1.52200305   -0.44015500   -0.49044600
 H         -2.89504004   -2.33121109    2.41697311
 O          1.36355305    0.19841400    0.48459700
 O         -0.61098099   -0.83394998   -1.47551405
 H          1.71468306   -0.85966700    2.31487012
 H          1.58046103    0.85617501   -0.22262999
 C         -1.12535596   -1.84843099   -2.33371496
 C         -1.02899206    0.82447302    0.21766500
 H         -2.49952888   -0.24718200   -0.94845998
 H         -1.85596597    1.12770605    0.86820900
 O         -0.82189900    1.89450800   -0.68304402
 H          0.06097400    1.81289196   -1.09849203
 H          0.32352701    1.46919405    1.74169695
 H         -0.38099000   -2.01290703   -3.11246300
 H         -2.06763792   -1.52535903   -2.79133606
 H         -1.29244494   -2.78141308   -1.78802097
 O          1.80483198    1.84479797   -1.59049797
 O          2.37016296    3.44133592   -0.12955000
 C          2.84275293    3.80771899   -2.44964409
 C          2.30759811    2.98194909   -1.28672099
 H          2.00652790    4.09889984   -3.09137106
 H          3.52443194    3.20451593   -3.05311489
 H          3.35349298    4.70356083   -2.09748292
