34
wb97x-d4 ma-def2-tzvp(-f) cpcm(dmso) E: -955.830554748456, G: -955.59582229
 C         -1.13121700   -2.85318804    2.25711012
 C         -0.66375500   -1.73315203    1.35188997
 H         -0.33500099   -3.11735892    2.95294309
 O         -1.44560206   -4.03184509    1.51729596
 H         -2.00369596   -2.51675797    2.83143806
 O         -1.77498698   -1.43411100    0.49467799
 C         -0.25739601   -0.48119000    2.13073707
 H          0.18142800   -2.07905102    0.74783403
 C          0.08988600    0.64863402    1.16156495
 O          0.84598100   -0.75032300    2.98702502
 H         -1.09107900   -0.17149299    2.76759005
 C         -1.50712204   -0.45421901   -0.49339300
 H         -2.09250307   -3.78037596    0.84642398
 O          1.32608199    0.28662500    0.56907898
 O         -0.54776800   -0.86956197   -1.42063606
 H          1.63518906   -0.69903898    2.42899299
 H          1.53297603    0.87274301   -0.20084199
 C         -0.99648100   -1.94288802   -2.24312806
 C         -1.07064795    0.84769601    0.18323800
 H         -2.46907902   -0.30416200   -0.99816298
 H         -1.92842996    1.15239406    0.79179698
 O         -0.85896802    1.89149201   -0.74642003
 H          0.04640700    1.83238995   -1.11582100
 H          0.20867901    1.58110595    1.73022604
 H         -1.14366698   -2.85483193   -1.65734506
 H         -0.22214800   -2.11324501   -2.99082708
 H         -1.93615997   -1.67974102   -2.74258900
 O          1.78554404    1.90395999   -1.53446698
 O          2.33154702    3.48392797   -0.04571800
 C          2.73127508    3.92346191   -2.36544108
 C          2.25596309    3.05041695   -1.21090102
 H          3.40968108    3.35847902   -3.00837898
 H          3.22756791    4.82370710   -2.00357890
 H          1.86749697    4.20950413   -2.97221804
