34
wb97x-d4 ma-def2-tzvp(-f) cpcm(dmso) E: -955.830531600188, G: -955.59578479
 C         -0.14117500   -2.83993411    1.52042699
 C         -0.34131899   -1.63697600    0.62042600
 H         -0.62142098   -3.70984602    1.05782402
 O         -0.64557600   -2.63618398    2.83961892
 H          0.92552900   -3.04130793    1.61734402
 O         -1.76071501   -1.43179595    0.53173298
 C          0.30746099   -0.35721701    1.14391506
 H          0.06600900   -1.87507904   -0.36782101
 C          0.01927900    0.79511499    0.17909500
 O          1.69298697   -0.56563199    1.37337601
 H         -0.16823800   -0.11083200    2.10023189
 C         -2.14847493   -0.43426400   -0.39270201
 H         -1.58429205   -2.42757392    2.75949907
 O          0.65107501    0.62932801   -1.08172596
 O         -1.84549403   -0.78453600   -1.71300602
 H          2.23674798    0.01534800    0.79988801
 H          1.59066606    0.90524697   -0.96154201
 C         -2.61305594   -1.88854694   -2.18405509
 C         -1.48842394    0.90739000   -0.04294700
 H         -3.23538899   -0.35174099   -0.27522299
 H         -1.94220805    1.23180902    0.89628398
 O         -1.78795505    1.89903104   -1.00951004
 H         -1.21859097    1.71047997   -1.76851404
 H          0.36102799    1.73182201    0.63716102
 H         -3.68379903   -1.70202303   -2.04187608
 H         -2.33676600   -2.81147695   -1.66650796
 H         -2.40076399   -1.99272799   -3.24775505
 O          3.10978293    1.14947999   -0.25547400
 O          4.08353710    2.41526699    1.30709600
 C          2.96455312    3.51309991   -0.50734597
 C          3.43032503    2.27799511    0.25549001
 H          3.38597989    3.49878597   -1.51547396
 H          3.26254010    4.43014383   -0.00010600
 H          1.87616003    3.48735309   -0.60782498
