34
wb97x-d4 ma-def2-tzvp(-f) cpcm(dmso) E: -955.830075554301, G: -955.59549036
 C          1.10372198   -1.24358702   -0.45554900
 C         -0.20521399   -0.45319399   -0.41567099
 H          1.57262599   -1.22618699    0.53672498
 O          2.01238894   -0.79838902   -1.44956505
 H          0.84903002   -2.28079510   -0.68749100
 O         -1.12606096   -1.31190097    0.27744901
 C         -0.12422700    0.87965798    0.33634701
 H         -0.55070502   -0.28157699   -1.44008100
 C         -1.50772202    1.51653302    0.45721200
 O          0.69276398    1.83349097   -0.31750700
 H          0.24768400    0.67356002    1.34893298
 C         -2.45708203   -0.84437299    0.30992201
 H          2.50416303   -0.03636700   -1.08175397
 O         -1.95843303    1.99825299   -0.80609399
 O         -3.02958298   -0.75404102   -0.96470201
 H          1.65110898    1.64323795   -0.14531100
 H         -1.22427404    2.50208402   -1.18072498
 C         -3.22239900   -2.02557993   -1.57823801
 C         -2.52546692    0.52076000    1.00038505
 H         -3.00044107   -1.58756697    0.90555298
 H         -2.27551508    0.34248900    2.04890394
 O         -3.84195304    1.04626095    0.98449999
 H         -4.05463886    1.24041700    0.06237400
 H         -1.44050205    2.35701394    1.15945399
 H         -2.26508093   -2.50821400   -1.79434001
 H         -3.75895905   -1.85040104   -2.51031899
 H         -3.81825089   -2.67897606   -0.93054098
 O          3.26852298    1.23701298   -0.14981100
 O          3.35028410    1.25248396    2.08422399
 C          5.09684706    0.12708201    0.88651699
 C          3.80848503    0.93448800    0.97092301
 H          5.51860380   -0.05529500    1.87443399
 H          5.82258701    0.65949899    0.26726201
 H          4.88769007   -0.82788098    0.39657900
