34
wb97x-d4 ma-def2-tzvp(-f) cpcm(dmso) E: -955.830360129162, G: -955.59546686
 C         -1.31857204   -2.71117091    2.28834605
 C         -0.73856002   -1.65636802    1.36784506
 H         -0.58767200   -2.97346711    3.05321598
 O         -1.63154995   -3.90803909    1.57936203
 H         -2.21466088   -2.30990696    2.77889895
 O         -1.76322305   -1.37890399    0.40447399
 C         -0.36014599   -0.37394199    2.11094189
 H          0.14410600   -2.05768704    0.85908902
 C          0.10744300    0.68971699    1.11508405
 O          0.65592200   -0.62697500    3.07381606
 H         -1.23498702   -0.00436200    2.65352702
 C         -1.38141894   -0.46227899   -0.60660303
 H         -2.20410991   -3.65614295    0.84405798
 O          1.37814999    0.25808600    0.65861201
 O         -0.36071599   -0.95640802   -1.42219996
 H          1.49101806   -0.62770802    2.58433509
 H          1.67500603    0.78569102   -0.12218900
 C         -0.77187997   -2.06902409   -2.21041489
 C         -0.96854401    0.86297500    0.03867500
 H         -2.29121709   -0.31333801   -1.20107901
 H         -1.86274695    1.19894600    0.57511199
 O         -0.68775702    1.86293006   -0.91806102
 H          0.24707800    1.80911899   -1.22127295
 H          0.20809500    1.64906704    1.64158404
 H         -1.66469300   -1.81861699   -2.79533195
 H         -0.98492002   -2.93962097   -1.58320796
 H          0.05165200   -2.30222011   -2.88517189
 O          1.94611204    1.71135199   -1.49222398
 O          3.80949497    2.72900605   -0.79719800
 C          2.24645591    3.99009991   -2.10658312
 C          2.72145200    2.72581697   -1.40240800
 H          2.93876410    4.81704998   -1.95057905
 H          1.25573003    4.26413012   -1.73511195
 H          2.15089393    3.79219604   -3.17734504
