34
wb97x-d4 ma-def2-tzvp(-f) cpcm(dmso) E: -955.830868651028, G: -955.59504878
 C         -0.32421800   -2.77311492    1.60730100
 C         -0.51140797   -1.58004498    0.67915601
 H         -0.60838801   -2.48931408    2.62956095
 O          1.01119602   -3.26414299    1.56744397
 H         -0.98120099   -3.58271694    1.28195500
 O         -1.92007101   -1.33230901    0.60924298
 C          0.16817300   -0.31274900    1.19652605
 H         -0.12182900   -1.83373499   -0.31155500
 C         -0.06482000    0.83086097    0.20849200
 O          1.54303706   -0.55164999    1.48191595
 H         -0.32752699   -0.04294700    2.13786292
 C         -2.27699089   -0.33931601   -0.33415899
 H          1.58225703   -2.48148704    1.63629103
 O          0.55933303    0.61186200   -1.04646599
 O         -1.99401605   -0.72535002   -1.64900398
 H          2.13105512   -0.02724600    0.88886601
 H          1.52019095    0.79062098   -0.91806602
 C         -2.78887510   -1.82364500   -2.08729506
 C         -1.56939101    0.98790699   -0.01734600
 H         -3.35955095   -0.21557000   -0.21280000
 H         -2.01031208    1.35051095    0.91394597
 O         -1.83776796    1.96470404   -1.00699306
 H         -1.29795098    1.72540700   -1.77295101
 H          0.30981299    1.76436198    0.64788699
 H         -3.85397911   -1.61232805   -1.93725097
 H         -2.52505112   -2.74025393   -1.55244803
 H         -2.59099293   -1.95571005   -3.15066600
 O          3.03105688    0.99569899   -0.16629800
 O          3.92635703    2.32135701    1.39337695
 C          3.02496791    3.33855510   -0.58294100
 C          3.36372995    2.14235401    0.29787201
 H          3.49147296    3.21389103   -1.56293595
 H          3.35878491    4.27228022   -0.13166501
 H          1.94291401    3.37325501   -0.73685700
