34
wb97x-d4 ma-def2-tzvp(-f) cpcm(dmso) E: -955.828963555384, G: -955.59497648
 C          0.31724301   -2.52819800    1.00612199
 C         -0.40066499   -1.48006999    0.16376100
 H          0.61003900   -2.07944894    1.96455395
 O          1.44786501   -3.06413698    0.32826799
 H         -0.36886501   -3.35363412    1.20940304
 O         -1.61552894   -1.17913496    0.86147398
 C          0.42358300   -0.20585600   -0.00300600
 H         -0.62745601   -1.91427898   -0.81706500
 C         -0.38474500    0.88184398   -0.71956497
 O          1.62370503   -0.52429801   -0.68188000
 H          0.65066200    0.17585100    1.00095105
 C         -2.44024396   -0.23888101    0.20763700
 H          1.89638603   -2.29887891   -0.07282800
 O         -0.62193900    0.60460198   -2.09829211
 O         -2.84701610   -0.68537498   -1.06317604
 H          2.28599906    0.21656500   -0.51542997
 H         -1.27090001   -0.11284900   -2.14992189
 C         -3.66207600   -1.85721004   -1.02120900
 C         -1.69885898    1.09138894    0.03516200
 H         -3.31360292   -0.11863300    0.85725898
 H         -1.46926105    1.45416999    1.03943801
 O         -2.51621509    2.07299709   -0.57823497
 H         -2.54380989    1.87204599   -1.52314496
 H          0.18801101    1.81277502   -0.70327801
 H         -4.00595903   -2.03847003   -2.03868508
 H         -4.52285814   -1.69479501   -0.36409801
 H         -3.09086704   -2.71899700   -0.66711402
 O          3.36451793    1.38110995   -0.32779300
 O          2.79835892    1.50814402    1.83442795
 C          4.41321611    3.06116891    0.98552698
 C          3.44880605    1.88872397    0.83627301
 H          5.36602879    2.82984591    0.50480199
 H          4.57661009    3.31048203    2.03399396
 H          3.98983693    3.93142700    0.47566700
