34
wb97x-d4 ma-def2-tzvp(-f) cpcm(dmso) E: -955.830743033382, G: -955.5949352
 C         -0.28632000   -2.78094602    1.59355903
 C         -0.50251102   -1.58771706    0.67243803
 H         -0.52681398   -2.49582100    2.62651396
 O          1.04547703   -3.27697611    1.49988401
 H         -0.95879900   -3.58830690    1.29593694
 O         -1.91230202   -1.33395302    0.64612401
 C          0.19908699   -0.32380199    1.16684604
 H         -0.14656501   -1.84341502   -0.33032301
 C         -0.05751100    0.82110000    0.18611500
 O          1.57956803   -0.57627898    1.40646303
 H         -0.26618201   -0.04879100    2.12234592
 C         -2.29185891   -0.34089699   -0.28855601
 H          1.62006199   -2.49492598    1.54727399
 O          0.53440702    0.60356098   -1.08638597
 O         -2.05103302   -0.73270601   -1.61015797
 H          2.15598893   -0.02117400    0.82503301
 H          1.49490702    0.78282797   -0.98044503
 C         -2.87323093   -1.82042599   -2.02477098
 C         -1.56716204    0.98289597    0.00218300
 H         -3.36928606   -0.21024200   -0.13457200
 H         -1.97786796    1.35062099    0.94517797
 O         -1.86169803    1.95964503   -0.98007202
 H         -1.35359502    1.71442997   -1.76551199
 H          0.32944301    1.75390506    0.61530602
 H         -2.70910907   -1.95363200   -3.09363008
 H         -3.93038607   -1.59521401   -1.84255397
 H         -2.60569191   -2.74074697   -1.49823201
 O          3.02366400    1.01769900   -0.19920300
 O          3.68582296    2.32674599    1.48611200
 C          3.11191010    3.36102009   -0.60066199
 C          3.29708290    2.15861011    0.31557801
 H          3.38664508    4.28952789   -0.10150600
 H          2.06594610    3.41103196   -0.91562301
 H          3.71791196    3.23234892   -1.50068700
