34
wb97x-d4 ma-def2-tzvp(-f) cpcm(dmso) E: -955.83071494649, G: -955.59478724
 C          0.29153499   -2.67091703    1.27909100
 C         -0.19561701   -1.51373506    0.43254200
 H          1.37047803   -2.77458310    1.16898501
 O         -0.28975001   -3.90805602    0.87005401
 H          0.06281100   -2.46876407    2.33324790
 O         -1.61214304   -1.43313205    0.66048503
 C          0.45107999   -0.18784800    0.82373399
 H         -0.00312000   -1.72439206   -0.62402898
 C         -0.15615200    0.95084900   -0.00222600
 O          1.86079597   -0.27981499    0.68802100
 H          0.20615500    0.00369400    1.87742305
 C         -2.27391601   -0.47322899   -0.13991900
 H         -1.24737298   -3.78564191    0.87278801
 O          0.20925900    0.87967402   -1.37393498
 O         -2.21216393   -0.77729201   -1.50360405
 H          2.19878602    0.42884499    0.09620300
 H          1.08896196    1.31774104   -1.43495202
 C         -2.92373395   -1.96396399   -1.84333599
 C         -1.68014097    0.91940701    0.10978000
 H         -3.31656599   -0.49922001    0.19811000
 H         -1.94549501    1.18091905    1.13675106
 O         -2.27033091    1.89603996   -0.72895998
 H         -1.85920000    1.78503096   -1.59767306
 H          0.18765000    1.90597403    0.41334599
 H         -3.95489311   -1.91416097   -1.47479606
 H         -2.43581605   -2.85031295   -1.42800903
 H         -2.92874408   -2.02907205   -2.93101907
 O          2.69167209    1.73513198   -0.97646397
 O          2.51521492    3.96216989   -0.91829401
 C          3.67595792    2.86894798    0.87175500
 C          2.90147901    2.87829900   -0.44080800
 H          4.63397217    2.36342001    0.72865403
 H          3.11384892    2.29835892    1.61570203
 H          3.84549809    3.87963700    1.24134898
