34
wb97x-d4 ma-def2-tzvp(-f) cpcm(dmso) E: -955.829040591511, G: -955.59469179
 C          0.20509800   -2.64084411    1.42694998
 C         -0.34771100   -1.45331001    0.66526997
 H          1.26836801   -2.47543311    1.61785495
 O          0.00185200   -3.87797093    0.74339300
 H         -0.31234500   -2.73165607    2.38548303
 O         -1.77539599   -1.59037197    0.64769399
 C          0.00585400   -0.12158700    1.33014798
 H          0.03813800   -1.46605098   -0.36092600
 C         -0.61303300    1.03181696    0.53723800
 O          1.40355694    0.03007100    1.51657999
 H         -0.44854000   -0.11943300    2.32832599
 C         -2.44834709   -0.61650997   -0.12223400
 H          0.53514802   -3.86289406   -0.05970300
 O         -0.05928700    1.16622102   -0.76047999
 O         -2.15854406   -0.71854901   -1.48783004
 H          1.81124997    0.49585801    0.75645900
 H          0.89621902    1.40469897   -0.68272102
 C         -2.68494892   -1.90332305   -2.07769704
 C         -2.11373806    0.79424900    0.38238600
 H         -3.51307201   -0.82128602    0.04269900
 H         -2.57179999    0.87962800    1.37075496
 O         -2.71024799    1.79037094   -0.42979601
 H         -2.18611097    1.82370996   -1.24140298
 H         -0.46823201    1.96103406    1.10385001
 H         -2.19220400   -2.79518604   -1.67951906
 H         -2.49812603   -1.83366299   -3.14925504
 H         -3.76404095   -1.97657597   -1.89839196
 O          2.59271193    1.46403599   -0.52888399
 O          2.32476401    3.45098400    0.45995000
 C          4.42879486    2.97159195   -0.58614099
 C          3.00383592    2.62343097   -0.17776200
 H          5.12181997    2.28077507   -0.09835200
 H          4.68449402    3.99420190   -0.30911100
 H          4.54381323    2.84196305   -1.66483295
