34
wb97x-d4 ma-def2-tzvp(-f) cpcm(dmso) E: -955.830750643081, G: -955.59462323
 C          0.82950902   -2.17289996    1.20717299
 C          0.08140600   -0.94926798    0.71422601
 H          1.02883899   -2.82836103    0.35163999
 O          0.12504099   -2.88131094    2.22443700
 H          1.78173900   -1.86308205    1.63767004
 O         -1.14120197   -1.42573595    0.13518900
 C         -0.25765401    0.04898800    1.82351005
 H          0.68897498   -0.47208899   -0.05996200
 C         -1.07237697    1.22329998    1.27252996
 O          0.88586903    0.46580201    2.54874492
 H         -0.90319097   -0.46976399    2.53783202
 C         -1.90054703   -0.42006001   -0.50561601
 H         -0.71921301   -3.16062403    1.85030794
 O         -0.35477099    2.11349392    0.42981800
 O         -1.22653496    0.13979100   -1.59686899
 H          1.51926506    0.89064997    1.92715096
 H          0.61740899    1.96813095    0.47275001
 C         -1.02610898   -0.78255302   -2.66303897
 C         -2.27560306    0.68265897    0.49278101
 H         -2.80694604   -0.93120098   -0.85190099
 H         -2.96690202    0.22682300    1.20605099
 O         -2.98083210    1.73216200   -0.14874500
 H         -2.32286191    2.21394801   -0.66859901
 H         -1.45654297    1.79366696    2.12835693
 H         -0.59318000   -0.22059800   -3.49045491
 H         -1.97985601   -1.22216201   -2.97755599
 H         -0.34041101   -1.58232403   -2.36904192
 O          2.30569410    1.67915702    0.60208797
 O          3.83171892    0.16922601   -0.01424900
 C          2.51438999    1.21397400   -1.72295797
 C          2.93397093    0.99135798   -0.27553600
 H          1.47672904    0.89078897   -1.84624696
 H          3.15016198    0.65845799   -2.41170502
 H          2.55401707    2.27965689   -1.95977497
