34
wb97x-d4 ma-def2-tzvp(-f) cpcm(dmso) E: -955.831859086343, G: -955.59460767
 C          0.53557098   -2.26566410    1.10493100
 C         -0.27340600   -1.05103695    0.64638197
 H          0.69164503   -2.22839594    2.18922210
 O          1.78349197   -2.38604307    0.42795399
 H         -0.03470200   -3.16738796    0.87303698
 O         -1.61870801   -1.48474896    0.38283601
 C         -0.35193300    0.06513100    1.68802798
 H          0.16658200   -0.67171198   -0.28029501
 C         -1.10973299    1.25462794    1.09810996
 O          0.89903402    0.45116699    2.21900201
 H         -0.94524199   -0.32114601    2.52592993
 C         -2.42403007   -0.49660000   -0.22917700
 H          2.21621799   -1.51420903    0.41275701
 O         -0.44987500    1.84686995   -0.00657400
 O         -1.98442101   -0.17528200   -1.51898098
 H          1.59605205    0.44910601    1.51332402
 H          0.49878401    2.01772809    0.17683600
 C         -2.14965606   -1.24646902   -2.44251800
 C         -2.48376894    0.77708900    0.62902701
 H         -3.42255592   -0.94737899   -0.28319901
 H         -3.06232405    0.51616102    1.51867998
 O         -3.20325994    1.80360103   -0.03310400
 H         -2.65066290    2.08872604   -0.77265400
 H         -1.25729299    2.00068998    1.89100206
 H         -3.18900609   -1.59564805   -2.44584894
 H         -1.48996794   -2.08412099   -2.19810200
 H         -1.89352298   -0.85919100   -3.42863989
 O          2.24076200    2.32741404   -0.21351101
 O          2.77464795    0.24084100    0.36362001
 C          4.17415905    1.33566594   -1.22032404
 C          2.96583605    1.30761802   -0.29867300
 H          4.10547304    2.15277791   -1.93826699
 H          4.27526093    0.38213500   -1.74119401
 H          5.07055187    1.47768497   -0.60961801
