34
wb97x-d4 ma-def2-tzvp(-f) cpcm(dmso) E: -955.83183457513, G: -955.59455566
 C          0.56844598   -2.24533606    1.13720298
 C         -0.25164801   -1.04362905    0.66558802
 H          0.70807600   -2.20531511    2.22367692
 O          1.82805502   -2.34858298    0.47852600
 H          0.01500800   -3.15547299    0.89762402
 O         -1.58799303   -1.49871695    0.38856199
 C         -0.35940799    0.07695200    1.69968796
 H          0.19247200   -0.66216898   -0.25833800
 C         -1.12834597    1.25119305    1.09380996
 O          0.87974799    0.48517600    2.24261594
 H         -0.95611697   -0.31197599    2.53387809
 C         -2.40118694   -0.52605999   -0.23876600
 H          2.24587202   -1.46916997    0.45960799
 O         -0.46556899    1.84871602   -0.00641000
 O         -1.95133805   -0.20565701   -1.52479303
 H          1.58631396    0.48476300    1.54541397
 H          0.48015201    2.03142190    0.18504900
 C         -2.08896804   -1.28397596   -2.44472909
 C         -2.48960304    0.75115597    0.61157101
 H         -3.39133000   -0.99362499   -0.30124700
 H         -3.07571006    0.48730800    1.49535799
 O         -3.21573806    1.76437199   -0.06373600
 H         -2.65618706    2.05982089   -0.79385602
 H         -1.29652905    1.99878502    1.88114095
 H         -1.82636905   -0.89634198   -3.42895198
 H         -3.12270498   -1.64901602   -2.45875812
 H         -1.41962004   -2.11019111   -2.18805003
 O          2.21003389    2.35655904   -0.19525599
 O          2.77597594    0.28665400    0.41050899
 C          4.10634995    1.35394704   -1.25301898
 C          2.94665694    1.34449303   -0.27185899
 H          3.79152298    0.82854402   -2.15992093
 H          4.96488714    0.82259899   -0.83992898
 H          4.38479424    2.37277508   -1.52220094
