34
wb97x-d4 ma-def2-tzvp(-f) cpcm(dmso) E: -955.830213429033, G: -955.59454503
 C          0.50462502   -2.49663401    1.11326694
 C         -0.17321700   -1.24460995    0.59282500
 H          0.43871400   -3.27858090    0.34789100
 O         -0.05228000   -2.95710707    2.34315109
 H          1.55643594   -2.28219795    1.30342305
 O         -1.54757905   -1.59778094    0.36313501
 C         -0.13154601   -0.07120800    1.57068801
 H          0.30268899   -0.96395898   -0.35223901
 C         -0.86621702    1.12983501    0.97164297
 O          1.18528497    0.24247800    1.98649395
 H         -0.67751801   -0.37193799    2.47036290
 C         -2.32023692   -0.58430099   -0.24577899
 H         -0.99209499   -3.11386299    2.19157600
 O         -0.23788700    1.65039301   -0.18973500
 O         -1.90909505   -0.31437099   -1.55604303
 H          1.64266503    0.79063100    1.30751705
 H          0.70046800    1.86210704    0.00395500
 C         -2.17194510   -1.38997197   -2.45212889
 C         -2.28210711    0.70595902    0.58636498
 H         -3.34211206   -0.98272198   -0.25577000
 H         -2.82762694    0.49052301    1.50826204
 O         -2.98337102    1.75271404   -0.06244600
 H         -2.45080400    2.00391507   -0.82863498
 H         -0.93814099    1.91271806    1.73871005
 H         -1.90732098   -1.04243004   -3.45061898
 H         -3.23418999   -1.66047001   -2.42805791
 H         -1.57071400   -2.26865911   -2.20153308
 O          2.42090511    2.02945495    0.32533601
 O          3.01611590    0.32432699   -0.99431199
 C          4.23247623    2.38229394   -1.17540503
 C          3.14793611    1.49266398   -0.58102798
 H          3.75999904    3.20976591   -1.71194303
 H          4.86952400    1.82623994   -1.86306500
 H          4.83816624    2.81478596   -0.37586299
