34
wb97x-d4 ma-def2-tzvp(-f) cpcm(dmso) E: -955.830944223007, G: -955.59453751
 C         -0.84464401   -2.84710002    2.07267094
 C         -0.49067500   -1.53660405    1.39965796
 H         -0.23802300   -2.97374392    2.96924305
 O         -0.57475603   -3.96139407    1.22493303
 H         -1.90328097   -2.83059096    2.36222792
 O         -1.35713303   -1.43322694    0.26273000
 C         -0.69682902   -0.33049899    2.31844306
 H          0.55190802   -1.56589794    1.06602299
 C         -0.41078600    0.96090698    1.55019200
 O          0.13552900   -0.41760001    3.46838403
 H         -1.73241496   -0.32260099    2.67036796
 C         -1.10608006   -0.30305499   -0.55556703
 H         -1.04608595   -3.80603909    0.39701200
 O          0.99504697    0.99523902    1.35931206
 O          0.15033700   -0.34833801   -1.16131997
 H          1.01333201   -0.12249600    3.18840098
 H          1.24286997    1.65486705    0.67697197
 C          0.26047400   -1.37802100   -2.13823509
 C         -1.25688398    0.97487801    0.27426401
 H         -1.88985300   -0.33602700   -1.32223105
 H         -2.29708099    0.96048999    0.61902601
 O         -1.11600196    2.14140201   -0.50684202
 H         -0.16321900    2.37512994   -0.63180703
 H         -0.72123200    1.81715405    2.16466594
 H          0.20452800   -2.36867905   -1.67720497
 H          1.23131502   -1.25707996   -2.61929393
 H         -0.53307801   -1.28403103   -2.88916612
 O          3.47121906    2.68488598   -1.61277401
 O          1.48861599    2.78609204   -0.59249997
 C          1.49757504    2.40180492   -2.94362211
 C          2.22632408    2.64035010   -1.62748301
 H          0.89763200    1.49348104   -2.85647011
 H          2.19822311    2.30455208   -3.77262998
 H          0.81312901    3.23179102   -3.13737702
