34
wb97x-d4 ma-def2-tzvp(-f) cpcm(dmso) E: -955.83181306296, G: -955.59453625
 C          0.63034600   -2.25760889    1.06456006
 C         -0.21491000   -1.05350399    0.64537901
 H          0.79349500   -2.24615407    2.14846492
 O          1.87594604   -2.32632589    0.37571099
 H          0.08238800   -3.16743898    0.81156802
 O         -1.54751301   -1.52072799    0.36939701
 C         -0.32722801    0.02882900    1.71962905
 H          0.21099700   -0.63369399   -0.27045700
 C         -1.12416506    1.21029103    1.16647005
 O          0.91150200    0.44039601    2.26080203
 H         -0.90692902   -0.39927500    2.54676008
 C         -2.38589907   -0.54043299   -0.21062601
 H          2.28739500   -1.44309998    0.38573799
 O         -0.48614800    1.85951102    0.08082900
 O         -1.96059096   -0.16633900   -1.49038506
 H          1.61323202    0.46445701    1.55869699
 H          0.46111801    2.04000497    0.26246899
 C         -2.10031199   -1.21097398   -2.44823599
 C         -2.48330998    0.70454502    0.68469000
 H         -3.36912298   -1.02196896   -0.27606201
 H         -3.05292892    0.40078801    1.56641304
 O         -3.23478889    1.72817099    0.05436700
 H         -2.69951105    2.04288912   -0.68575102
 H         -1.29426003    1.92565799    1.98279405
 H         -1.41447794   -2.03627300   -2.23569298
 H         -1.86229801   -0.78250402   -3.42172694
 H         -3.12881303   -1.59062004   -2.45692205
 O          2.78509808    0.30991799    0.40222099
 O          2.18857598    2.38346100   -0.15982801
 C          4.01572084    1.38102996   -1.33365595
 C          2.91700006    1.37075305   -0.28483501
 H          4.28406477    2.40021706   -1.61157894
 H          3.64227104    0.86512703   -2.22366905
 H          4.89405584    0.84089398   -0.97753203
