34
wb97x-d4 ma-def2-tzvp(-f) cpcm(dmso) E: -955.831563841235, G: -955.59449368
 C         -0.80925900   -2.98616099    1.74566901
 C         -0.48550701   -1.60403800    1.19230497
 H         -1.79424703   -2.96191001    2.23032093
 O          0.18883000   -3.45220709    2.64807010
 H         -0.85318601   -3.69651198    0.91736197
 O         -1.43276203   -1.36986697    0.14630300
 C         -0.61621201   -0.49996799    2.24448800
 H          0.53156102   -1.60500300    0.78670001
 C         -0.36319900    0.86941701    1.61805296
 O          0.28177100   -0.72355199    3.33456302
 H         -1.62727201   -0.53070498    2.66001010
 C         -1.22212994   -0.15583301   -0.55553502
 H          0.37587500   -2.71697211    3.25132704
 O          1.02791595    0.93334299    1.34486997
 O         -0.00521800   -0.13907500   -1.23893905
 H          1.14815795   -0.40446001    3.04227495
 H          1.23266399    1.57095301    0.62048298
 C          0.01832900   -1.00350702   -2.36911607
 C         -1.29281104    1.02911401    0.41046301
 H         -2.05334592   -0.09968800   -1.26823795
 H         -2.30877090    1.00746500    0.81813699
 O         -1.15995002    2.26715207   -0.25423101
 H         -0.22441000    2.39090395   -0.54278803
 H         -0.62999499    1.64793599    2.34586096
 H         -0.07264900   -2.05157995   -2.06868911
 H          0.97697598   -0.85058999   -2.86440110
 H         -0.79417503   -0.75313503   -3.06120801
 O          1.45405698    2.65180302   -0.68734503
 O          3.11877298    1.46095002   -1.58176100
 C          1.45150900    2.35973001   -3.04970098
 C          2.06910992    2.12400603   -1.67819500
 H          1.47791195    3.42908812   -3.27654409
 H          0.40470901    2.04958797   -3.03463793
 H          1.98694897    1.81331003   -3.82593298
