34
wb97x-d4 ma-def2-tzvp(-f) cpcm(dmso) E: -955.829342672626, G: -955.59445741
 C         -1.27275705   -2.84264207    2.18217492
 C         -0.71833998   -1.64592302    1.43637204
 H         -0.64202100   -3.06123900    3.04373097
 O         -1.28347898   -4.01145411    1.36562896
 H         -2.28562689   -2.61154795    2.53639007
 O         -1.60997200   -1.42273998    0.33674601
 C         -0.65205002   -0.39158499    2.30897498
 H          0.28121400   -1.88168705    1.05650604
 C         -0.18026701    0.79942697    1.47379005
 O          0.20575200   -0.59084600    3.42592692
 H         -1.64950895   -0.18146600    2.70543194
 C         -1.20628703   -0.38643399   -0.54124302
 H         -1.76790297   -3.78896904    0.56080401
 O          1.19867504    0.57376200    1.22106397
 O         -0.01521900   -0.68119103   -1.20854604
 H          1.10873199   -0.47950599    3.09693289
 H          1.52744401    1.13071799    0.48688400
 C         -0.14847299   -1.76894295   -2.11882710
 C         -1.07819998    0.92428398    0.23829500
 H         -2.02625203   -0.30391699   -1.26508403
 H         -2.08286810    1.11336994    0.63212800
 O         -0.77053797    2.01967692   -0.59605002
 H          0.19274300    2.03432298   -0.81405401
 H         -0.30066600    1.71789896    2.06413293
 H         -0.32339200   -2.70899892   -1.58736002
 H          0.78650701   -1.83566105   -2.67480397
 H         -0.97597098   -1.58930802   -2.81538796
 O          1.88182700    2.15548992   -0.86647499
 O          3.88314891    2.83190203   -1.58853698
 C          1.95335805    3.42262697   -2.87800789
 C          2.64188695    2.76460791   -1.68754601
 H          1.03055406    3.91447091   -2.56426096
 H          1.68598402    2.64238000   -3.59698200
 H          2.61196589    4.13911676   -3.36874890
