34
wb97x-d4 ma-def2-tzvp(-f) cpcm(dmso) E: -955.830976794151, G: -955.59440435
 C          0.08487100   -2.76032400    1.21334100
 C         -0.38945499   -1.54146194    0.43210199
 H         -0.00415600   -2.55859590    2.28932095
 O          1.41874695   -3.12088108    0.87111801
 H         -0.55694902   -3.61010909    0.97058302
 O         -1.79253197   -1.42454398    0.69068301
 C          0.29072800   -0.24891201    0.88454801
 H         -0.21300900   -1.70541203   -0.63552499
 C         -0.25433400    0.93153399    0.08010500
 O          1.70798099   -0.36968100    0.82612997
 H          0.01176700   -0.09178400    1.93442404
 C         -2.43120193   -0.40197301   -0.04945800
 H          1.92487705   -2.29202700    0.86470699
 O          0.07118900    0.85715997   -1.29852605
 O         -2.42476702   -0.65587997   -1.42503500
 H          2.09530091    0.24595100    0.16069999
 H          1.00890398    1.14916801   -1.38086796
 C         -3.20575309   -1.79163599   -1.78401506
 C         -1.77595401    0.95958298    0.22709100
 H         -3.46372008   -0.39455399    0.31961900
 H         -2.00543594    1.20201898    1.26716304
 O         -2.35067797    1.97954798   -0.56915897
 H         -1.99734700    1.85429299   -1.46073198
 H          0.14387999    1.86340702    0.50225103
 H         -4.22881079   -1.69200504   -1.40282094
 H         -2.76482010   -2.71355605   -1.39467204
 H         -3.22557497   -1.83227301   -2.87279105
 O          2.64875102    1.40690899   -0.99446797
 O          2.63064289    3.63498402   -1.16104996
 C          3.85566711    2.63927102    0.64473099
 C          2.97756600    2.57975292   -0.59916598
 H          4.07841396    3.66782999    0.92644101
 H          4.78753614    2.10116506    0.45385200
 H          3.34767389    2.13303089    1.46937501
