34
wb97x-d4 ma-def2-tzvp(-f) cpcm(dmso) E: -955.830353618592, G: -955.59435119
 C          0.25828299   -2.69413996    1.22871995
 C         -0.28509200   -1.46223199    0.53527099
 H          1.34745300   -2.66735196    1.22236204
 O         -0.13546500   -3.88940501    0.55705202
 H         -0.08786000   -2.70746899    2.27030993
 O         -1.71538496   -1.57259297    0.60502601
 C          0.12675300   -0.15961900    1.21785295
 H          0.03258500   -1.45988595   -0.51221699
 C         -0.49437499    1.02317405    0.47088099
 O          1.53185105   -0.05119400    1.37266302
 H         -0.30030301   -0.17199400    2.22772694
 C         -2.41175508   -0.56896597   -0.10652000
 H         -1.09763205   -3.86632705    0.48295599
 O         -0.01902300    1.16350305   -0.85435897
 O         -2.21070910   -0.65707397   -1.48774004
 H          1.93273497    0.43850300    0.62694198
 H          0.94894201    1.37556803   -0.83930701
 C         -2.79018593   -1.82775199   -2.05531812
 C         -2.00925493    0.82545900    0.40001100
 H         -3.46913004   -0.74898797    0.12291600
 H         -2.40756798    0.90648502    1.41426098
 O         -2.62401891    1.84689498   -0.36515900
 H         -2.13226104    1.88785505   -1.19684100
 H         -0.29397801    1.94042003    1.04114604
 H         -3.85516810   -1.89188600   -1.80261099
 H         -2.28125811   -2.73018289   -1.70393300
 H         -2.67718792   -1.74632001   -3.13630199
 O          2.27050710    3.64574099    0.00721000
 O          2.60854411    1.52947605   -0.63258499
 C          4.52656412    2.87778902   -0.22697100
 C          3.01558590    2.69202209   -0.28843099
 H          4.79345179    3.93379998   -0.18393500
 H          5.00461292    2.40350890   -1.08597004
 H          4.89974308    2.38317990    0.67488903
