34
wb97x-d4 ma-def2-tzvp(-f) cpcm(dmso) E: -955.829951960942, G: -955.5943220099999
 C         -0.16028699   -2.81337404    1.88079298
 C         -0.20030500   -1.45511103    1.21880996
 H          0.52338302   -2.76913404    2.73297906
 O          0.28682601   -3.78119493    0.92900002
 H         -1.16401100   -3.06552792    2.24409199
 O         -1.27880704   -1.47553003    0.27688599
 C         -0.42537799   -0.33467200    2.24008203
 H          0.74462199   -1.27931499    0.69350803
 C         -0.55257499    1.01291597    1.52697599
 O          0.63314003   -0.28365099    3.18927908
 H         -1.34521103   -0.53953701    2.79587793
 C         -1.41278994   -0.29016799   -0.48526201
 H          0.32425299   -4.63529110    1.37310898
 O          0.74979901    1.34634399    1.07394397
 O         -0.31790301   -0.05533600   -1.31952596
 H          1.35772097    0.18823400    2.75470901
 H          0.72259599    1.97445703    0.31144899
 C         -0.20964199   -0.99947703   -2.37816095
 C         -1.62993002    0.90481901    0.44525999
 H         -2.31285906   -0.45296100   -1.09100902
 H         -2.55963302    0.68318403    0.97998703
 O         -1.86215496    2.10475898   -0.26101300
 H         -1.01912200    2.44779491   -0.63843799
 H         -0.88986999    1.76399803    2.25473690
 H         -1.14338803   -1.04450703   -2.95123696
 H          0.02714500   -1.99727499   -1.99660599
 H          0.59781402   -0.65834701   -3.02624393
 O          0.56195003    3.00023198   -1.01777804
 O          0.48139900    2.84404993   -3.24273205
 C          2.36743999    1.89591801   -2.11133099
 C          1.03646004    2.63332295   -2.14825797
 H          3.09975910    2.47966504   -1.54860401
 H          2.74262905    1.70409298   -3.11652899
 H          2.22692990    0.94661999   -1.58875000
