34
wb97x-d4 ma-def2-tzvp(-f) cpcm(dmso) E: -955.830350842795, G: -955.59430091
 C          1.03323102   -1.85865903    1.04779804
 C          0.08532800   -0.76901102    0.59187400
 H          1.99571598   -1.42191601    1.31084001
 O          1.27339303   -2.80599499    0.01003200
 H          0.61703902   -2.35401392    1.93417001
 O         -1.14543700   -1.43349195    0.26930299
 C         -0.19061901    0.26601100    1.68189502
 H          0.48529401   -0.28909901   -0.30738100
 C         -1.21123397    1.29531598    1.18580496
 O          0.98975801    0.85416597    2.19536996
 H         -0.65914798   -0.26252401    2.51949692
 C         -2.13707495   -0.58967501   -0.28069100
 H          0.41206101   -3.12448311   -0.28705600
 O         -0.74456900    2.13727188    0.14174099
 O         -1.77088106   -0.07865700   -1.52985096
 H          1.46014297    1.33656204    1.47151899
 H          0.23241700    2.21376204    0.14444500
 C         -1.69823301   -1.08301902   -2.53765106
 C         -2.45761299    0.55959201    0.68528003
 H         -3.01756096   -1.23426795   -0.39076900
 H         -2.94713998    0.10437200    1.54981899
 O         -3.39665699    1.45575702    0.11582600
 H         -2.93408990    1.91544402   -0.59757102
 H         -1.50759804    1.91675699    2.04160810
 H         -0.87555701   -1.77757299   -2.34341097
 H         -1.52545905   -0.57089299   -3.48397493
 H         -2.63896799   -1.64348602   -2.59047294
 O          2.64897704    2.12700391   -2.00824308
 O          1.98012495    2.19642711    0.11949800
 C          3.58197808    0.52893800   -0.50481403
 C          2.67692399    1.70993698   -0.83528298
 H          3.10123301   -0.38601300   -0.86340201
 H          3.74787903    0.43629801    0.56867200
 H          4.53634214    0.62916499   -1.02442098
