34
wb97x-d4 ma-def2-tzvp(-f) cpcm(dmso) E: -955.833430831847, G: -955.59871887
 C         -0.00047000   -2.76575494    1.43339300
 C         -0.41016501   -1.59437001    0.57222301
 H          1.08960998   -2.77991509    1.51163006
 O         -0.47593400   -3.97265291    0.83071899
 H         -0.42635199   -2.64277291    2.43652701
 O         -1.83468294   -1.46476996    0.67988598
 C          0.24489200   -0.29281399    1.02461898
 H         -0.13488400   -1.79652297   -0.46806401
 C         -0.25306100    0.87123299    0.15867500
 O          1.64866495   -0.43858299    0.95690203
 H         -0.07663900   -0.09517300    2.05903411
 C         -2.39109802   -0.48827201   -0.17726301
 H         -0.21140701   -4.70734501    1.39476299
 O          0.23815399    0.80709398   -1.16670597
 O         -2.22413993   -0.80313998   -1.53034401
 H          2.07491398    0.45800900    0.95996702
 H          1.08428705    1.32466698   -1.18706405
 C         -2.97186399   -1.94822705   -1.92751706
 C         -1.78129303    0.88632601    0.12362700
 H         -3.46012712   -0.48058799    0.06871200
 H         -2.14002299    1.16184497    1.11885798
 O         -2.25045395    1.87320602   -0.77845901
 H         -1.69361496    1.78402102   -1.56552100
 H          0.07821500    1.80957603    0.62025398
 H         -4.02915001   -1.82790303   -1.66316605
 H         -2.58466697   -2.85662603   -1.45718396
 H         -2.87473392   -2.03050089   -3.01001692
 O          2.93367290    1.90284896    0.96791101
 O          2.44981503    2.27641010   -1.18535805
 C          4.12125301    3.63337398   -0.16067000
 C          3.08086300    2.52293110   -0.12083300
 H          5.09126186    3.18710804   -0.40083599
 H          4.20653009    4.11967611    0.81193602
 H          3.88262105    4.36760616   -0.93063903
