34
wb97x-d4 ma-def2-tzvp(-f) cpcm(dmso) E: -955.830363949072, G: -955.59427723
 C          1.00863695   -1.87449801    1.04383898
 C          0.07508400   -0.77203703    0.58762902
 H          1.97389805   -1.45016003    1.31655502
 O          1.24495900   -2.81722689    0.00096000
 H          0.58099502   -2.37056398    1.92433906
 O         -1.15871596   -1.42194498    0.24893101
 C         -0.20241299    0.25679800    1.68326604
 H          0.48816201   -0.28909200   -0.30391201
 C         -1.20478797    1.30174601    1.18262506
 O          0.97706002    0.82587200    2.21974301
 H         -0.68864000   -0.27468699    2.50880599
 C         -2.13712096   -0.56417000   -0.30421200
 H          0.38143599   -3.11783290   -0.30849200
 O         -0.71816301    2.14216900    0.14691900
 O         -1.75525999   -0.05005800   -1.54735005
 H          1.46449101    1.30907094    1.50857794
 H          0.25968501    2.21003103    0.16228600
 C         -1.69148397   -1.04879403   -2.56132007
 C         -2.45462203    0.58231902    0.66649997
 H         -3.02335906   -1.19875896   -0.42555600
 H         -2.95630503    0.12672099    1.52371299
 O         -3.37915802    1.49146795    0.09357400
 H         -2.90539789    1.94844401   -0.61427897
 H         -1.50195801    1.92265499    2.03857899
 H         -2.64166594   -1.59173596   -2.62644506
 H         -0.88325298   -1.75929904   -2.36423302
 H         -1.50087595   -0.53431797   -3.50288105
 O          2.64811897    2.08794498   -1.97293901
 O          2.00463200    2.17532992    0.16199400
 C          3.59150195    0.49544600   -0.47024399
 C          2.68771601    1.67847598   -0.79780102
 H          3.74607491    0.39201400    0.60386997
 H          4.55165005    0.60553002   -0.97730601
 H          3.11908293   -0.41685700   -0.84573197
