34
wb97x-d4 ma-def2-tzvp(-f) cpcm(dmso) E: -955.829557067014, G: -955.59425608
 C          0.78514200   -1.80574000    1.36769998
 C         -0.11299400   -0.67493200    0.87586999
 H          0.25610799   -2.38805294    2.12804508
 O          1.97330499   -1.29408801    1.95805395
 H          1.01728404   -2.46120906    0.52260202
 O         -1.20881200   -1.30015898    0.19860999
 C         -0.64764899    0.18977299    2.01754189
 H          0.45814201   -0.05645100    0.17404100
 C         -1.64038897    1.23017800    1.49767399
 O          0.39778700    0.84453100    2.71929502
 H         -1.20403397   -0.47363701    2.69602108
 C         -2.12124801   -0.38864401   -0.37396401
 H          2.51311111   -0.87317997    1.22601902
 O         -1.03239596    2.25522494    0.71649700
 O         -1.51122701    0.44354299   -1.33002198
 H          1.14797103    0.22265300    2.73121309
 H         -0.77357000    1.86875105   -0.13346000
 C         -1.00954700   -0.26133999   -2.46650791
 C         -2.73476505    0.50745898    0.70819497
 H         -2.88838506   -1.00700903   -0.85187203
 H         -3.28006601   -0.14839000    1.39010203
 O         -3.68109608    1.40986395    0.16340300
 H         -3.18590689    2.10865808   -0.28418601
 H         -2.09387803    1.74241495    2.35011101
 H         -0.70806402    0.49054900   -3.19470406
 H         -1.79446995   -0.89408100   -2.89362788
 H         -0.14822100   -0.87685800   -2.19678211
 O          3.41290808   -0.08134900    0.11979200
 O          2.71718597   -1.49846900   -1.46682000
 C          3.44287992    0.68256998   -2.13427901
 C          3.17476392   -0.39700499   -1.08980703
 H          3.49789405    0.25949299   -3.13759494
 H          4.36315680    1.22234404   -1.90353894
 H          2.61907792    1.40258706   -2.10362411
