34
wb97x-d4 ma-def2-tzvp(-f) cpcm(dmso) E: -955.829291574471, G: -955.59409178
 C          0.79579699   -1.85778296    0.13270800
 C         -0.26282901   -0.78032500   -0.10454300
 H          0.90276998   -2.02480102    1.21212304
 O          2.05044293   -1.57134700   -0.46015200
 H          0.42225000   -2.78279591   -0.31457800
 O         -1.49604201   -1.41014695    0.27305901
 C         -0.08229400    0.48869500    0.73468101
 H         -0.28108999   -0.51898700   -1.16761696
 C         -1.27806997    1.42612803    0.56799001
 O          1.06035805    1.23743105    0.35919300
 H         -0.02433100    0.19142801    1.79048502
 C         -2.65327692   -0.64671201    0.01296400
 H          2.54400706   -0.99578500    0.15979899
 O         -1.27613401    2.02418995   -0.72487003
 O         -2.84664512   -0.39899701   -1.35043502
 H          1.86375594    0.83075798    0.76154298
 H         -0.37991101    2.35496306   -0.86747599
 C         -3.14714289   -1.57772601   -2.09201002
 C         -2.59251094    0.68186599    0.77170098
 H         -3.48205400   -1.25337601    0.39764300
 H         -2.65930796    0.42741299    1.83224106
 O         -3.71475911    1.49655402    0.47933701
 H         -3.65470791    1.72757697   -0.45670700
 H         -1.20725596    2.21348095    1.32923698
 H         -4.01124096   -2.09492993   -1.65903699
 H         -2.29155898   -2.25874305   -2.11214209
 H         -3.38359690   -1.26271105   -3.10813808
 O          3.17173505    0.01720100    1.47384799
 O          5.23716021    0.54311800    2.13704801
 C          4.55855513    1.19008100   -0.07089000
 C          4.32676411    0.53830200    1.28922606
 H          3.85226893    2.01461005   -0.19996700
 H          4.36245584    0.46381700   -0.86376101
 H          5.57643700    1.56755495   -0.16250300
