34
wb97x-d4 ma-def2-tzvp(-f) cpcm(dmso) E: -955.830366725482, G: -955.59407314
 C          0.36813799   -2.80427599    0.93662900
 C         -0.20169900   -1.55718303    0.28802201
 H         -0.10380500   -3.68441701    0.48427799
 O          0.19045800   -2.81865311    2.35157490
 H          1.44129205   -2.84837008    0.75060302
 O         -1.60689402   -1.56320298    0.58223802
 C          0.40681100   -0.26090100    0.81876498
 H         -0.04413200   -1.62344694   -0.79395401
 C         -0.25973201    0.93750101    0.13895300
 O          1.81774998   -0.27620199    0.67542100
 H          0.17378700   -0.20134699    1.88831306
 C         -2.33854890   -0.53473800   -0.05313900
 H         -0.75625098   -2.74098611    2.52083397
 O          0.01928100    1.01006198   -1.25046802
 O         -2.35394907   -0.67535597   -1.44487405
 H          2.11488199    0.40150401    0.02925300
 H          0.92238498    1.39452505   -1.33943701
 C         -3.06937289   -1.82900298   -1.87496102
 C         -1.77385998    0.84161198    0.32530501
 H         -3.35818911   -0.63470697    0.33863601
 H         -1.99099195    0.97687101    1.38758194
 O         -2.44237494    1.88067997   -0.36741000
 H         -2.08644891    1.87219596   -1.26657796
 H          0.08485100    1.85764003    0.62917697
 H         -2.55987000   -2.74681211   -1.56782699
 H         -3.11519599   -1.78713703   -2.96311402
 H         -4.08646297   -1.82678902   -1.46534395
 O          2.57375908    1.67526102   -1.09081805
 O          2.58979106    3.90931797   -1.05792701
 C          3.94516611    2.73889208    0.53623998
 C          2.96366191    2.80222702   -0.62716103
 H          4.78122377    2.08389401    0.28107899
 H          3.43857694    2.30190706    1.40143001
 H          4.31596613    3.72943902    0.79868001
