34
wb97x-d4 ma-def2-tzvp(-f) cpcm(dmso) E: -955.830552190528, G: -955.59383741
 C          1.05015099   -1.84876394    1.00333297
 C          0.08867600   -0.75621003    0.58864403
 H          2.00609493   -1.40956295    1.28558004
 O          1.30380297   -2.75156903   -0.07106600
 H          0.64068300   -2.38555288    1.86854100
 O         -1.13856196   -1.42006004    0.25014901
 C         -0.19433300    0.24666899    1.70630801
 H          0.47914901   -0.25105500   -0.30065399
 C         -1.22367406    1.28179002    1.24072003
 O          0.98038697    0.83312303    2.23471403
 H         -0.65778202   -0.30844799    2.52922392
 C         -2.12749791   -0.56498998   -0.28852901
 H          0.44521400   -3.04709601   -0.39910299
 O         -0.76146501    2.17202497    0.23481999
 O         -1.74596095   -0.01545900   -1.51704395
 H          1.47064495    1.28722501    1.50937998
 H          0.21923301    2.20968103    0.19307201
 C         -1.63907599   -0.98998702   -2.55086994
 C         -2.46152210    0.55484003    0.70679200
 H         -3.00458288   -1.20821095   -0.42770800
 H         -2.95768189    0.07205300    1.55249798
 O         -3.39756107    1.46518600    0.15491900
 H         -2.92144990    1.96327603   -0.52309799
 H         -1.52988899    1.86731303    2.11775494
 H         -0.81844902   -1.68611300   -2.35485005
 H         -1.44230294   -0.44907600   -3.47615695
 H         -2.57478309   -1.55298495   -2.64728093
 O          2.27712989    1.75068104   -2.05571508
 O          1.95095003    2.14244008    0.11871200
 C          3.59206891    0.50929099   -0.50580102
 C          2.52883792    1.54551899   -0.85238999
 H          4.52995396    0.77399600   -0.99967700
 H          3.27985692   -0.46351001   -0.89455003
 H          3.75373912    0.43353900    0.56932902
