34
wb97x-d4 ma-def2-tzvp(-f) cpcm(dmso) E: -955.830481332416, G: -955.5938356
 C         -0.03252400   -2.77556300    1.26373506
 C         -0.49459001   -1.50883698    0.55601603
 H         -0.31016600   -2.72146797    2.32504511
 O          1.36857104   -2.98153901    1.11555099
 H         -0.53893501   -3.63661599    0.82196897
 O         -1.92567205   -1.52491999    0.60900599
 C         -0.00806800   -0.23406599    1.24456406
 H         -0.15481500   -1.53051496   -0.48465800
 C         -0.53470999    0.99619299    0.50777602
 O          1.40728498   -0.22871400    1.41263700
 H         -0.44286799   -0.22554301    2.25113511
 C         -2.54215693   -0.46933800   -0.10370600
 H          1.77956104   -2.11983800    1.29588401
 O         -0.02329100    1.12732995   -0.80782998
 O         -2.32523799   -0.56078601   -1.48174906
 H          1.85058701    0.29033601    0.69954997
 H          0.96048802    1.16804600   -0.76613498
 C         -2.97357988   -1.68342698   -2.07234812
 C         -2.05703998    0.89417899    0.41211700
 H         -3.61172795   -0.58150399    0.11088100
 H         -2.46239710    1.00007999    1.42130101
 O         -2.59787607    1.95485699   -0.35552499
 H         -2.12204599    1.95106995   -1.19683599
 H         -0.28762200    1.89016998    1.09531295
 H         -4.04266024   -1.68220103   -1.82958698
 H         -2.52723098   -2.62146807   -1.73009896
 H         -2.84478998   -1.59202194   -3.15069699
 O          2.54210997    3.12555909    0.58309901
 O          2.65901494    1.18793702   -0.52873898
 C          4.52927399    2.64706802   -0.66915900
 C          3.13423300    2.31801200   -0.15603000
 H          4.56384802    2.52558208   -1.75413501
 H          5.24300909    1.93996096   -0.23753400
 H          4.82202005    3.66198397   -0.40081099
