34
wb97x-d4 ma-def2-tzvp(-f) cpcm(dmso) E: -955.830404887713, G: -955.5935111699999
 C          0.43751800   -2.45653796    1.20633197
 C         -0.19094101   -1.19685495    0.62425798
 H         -0.06625200   -2.71122098    2.14823389
 O          1.83816803   -2.30479693    1.40336001
 H          0.29302299   -3.28318000    0.50743800
 O         -1.53329003   -1.55168498    0.27096099
 C         -0.25546700   -0.05190700    1.63697696
 H          0.36818200   -0.89150101   -0.26662400
 C         -0.91600001    1.17119598    0.99759901
 O          0.99903500    0.22375999    2.24616098
 H         -0.91622400   -0.38768399    2.44464707
 C         -2.26776910   -0.52278203   -0.36291301
 H          1.94322395   -1.47503495    1.89611995
 O         -0.20992599    1.70709503   -0.10913000
 O         -1.77267003   -0.22063300   -1.63672197
 H          1.54467797    0.82971799    1.68115103
 H          0.72976100    1.87755203    0.12553599
 C         -1.98726296   -1.26692295   -2.57899690
 C         -2.29910707    0.75048798    0.49888501
 H         -3.28478503   -0.92323703   -0.45086801
 H         -2.91076398    0.51374298    1.37242401
 O         -2.95498705    1.80659795   -0.18101400
 H         -2.36356401    2.07727909   -0.89607501
 H         -1.04551399    1.94170904    1.76989198
 H         -1.65241802   -0.89578998   -3.54735994
 H         -3.05163908   -1.52359402   -2.63444304
 H         -1.41482496   -2.16066003   -2.31500602
 O          2.34696698    1.89994895    0.69003099
 O          4.10005522    0.53593200    0.45559099
 C          3.31251311    1.71440601   -1.47803402
 C          3.27131009    1.34313595   -0.00233200
 H          4.17295885    1.26878798   -1.97600400
 H          3.34232903    2.80102301   -1.58492994
 H          2.39368391    1.36165094   -1.95513999
