34
wb97x-d4 ma-def2-tzvp(-f) cpcm(dmso) E: -955.828770409767, G: -955.59350676
 C         -1.15179801   -2.92663503    2.09021211
 C         -0.68836302   -1.77137697    1.22231698
 H         -1.54403806   -3.71157789    1.43970704
 O         -2.20297790   -2.58520508    2.99303889
 H         -0.29137200   -3.32633591    2.63401604
 O         -1.77892399   -1.40507901    0.36897099
 C         -0.23216601   -0.54872698    2.02123094
 H          0.14960700   -2.13234997    0.61458999
 C          0.19881800    0.56667000    1.07099795
 O          0.82716203   -0.88654602    2.90814996
 H         -1.06192398   -0.19174600    2.63664293
 C         -1.45309103   -0.42602900   -0.60047603
 H         -1.81691396   -2.14797902    3.75970006
 O          1.42269599    0.13873900    0.49350399
 O         -0.51564401   -0.88205099   -1.53250504
 H          1.63160801   -0.90827000    2.37124205
 H          1.65760005    0.68488598   -0.29316100
 C         -1.02319503   -1.91722202   -2.36855793
 C         -0.94620597    0.84200501    0.09119300
 H         -2.40300012   -0.21422400   -1.10656595
 H         -1.78541100    1.17739499    0.71020901
 O         -0.68854201    1.88909197   -0.82086098
 H          0.20622100    1.78145504   -1.21797597
 H          0.36587599    1.48423398    1.65195596
 H         -0.26119599   -2.11935806   -3.12130308
 H         -1.94854701   -1.59632897   -2.86132789
 H         -1.21899498   -2.82816410   -1.79541504
 O          1.86283505    1.69667602   -1.63852406
 O          3.84087491    2.61413693   -1.15802801
 C          2.15000892    4.00496578   -2.13428712
 C          2.67642212    2.68193007   -1.59430802
 H          1.96707296    3.90436292   -3.20772910
 H          2.86045289    4.81406784   -1.96592402
 H          1.19505095    4.24458885   -1.66072905
