34
wb97x-d4 ma-def2-tzvp(-f) cpcm(dmso) E: -955.829595408803, G: -955.59341292
 C          0.54670101   -2.13936496    1.37326598
 C         -0.17649500   -0.94579202    0.73629099
 H          0.92911500   -1.85375297    2.35966301
 O          1.59812701   -2.64562201    0.56398797
 H         -0.17696200   -2.94530511    1.51178801
 O         -1.49951303   -1.38075197    0.37685901
 C         -0.27589399    0.26047999    1.67164600
 H          0.36676201   -0.66543901   -0.17186600
 C         -1.09344196    1.38256001    1.02099001
 O          0.98754299    0.73123997    2.09481406
 H         -0.82873702   -0.06050300    2.56452990
 C         -2.27097511   -0.40977401   -0.29222599
 H          2.22759295   -1.89560997    0.45450300
 O         -0.41692501    2.00029802   -0.07108500
 O         -1.68286097    0.00171000   -1.50385296
 H          1.69491005    0.46084899    1.46273100
 H         -0.43597701    1.38262403   -0.81746203
 C         -1.57656705   -1.04287195   -2.47072196
 C         -2.45182896    0.82823700    0.59073400
 H         -3.23409796   -0.89185703   -0.49264500
 H         -2.99171996    0.50138801    1.48225105
 O         -3.25703311    1.80977798   -0.03778100
 H         -2.72176003    2.22031093   -0.72928101
 H         -1.24729705    2.17516088    1.75790703
 H         -2.55757594   -1.49811494   -2.64387012
 H         -0.87142402   -1.81045496   -2.14181089
 H         -1.21632397   -0.58488601   -3.39115596
 O          2.91426301   -0.28757599    0.49238500
 O          3.74796700   -0.57122999   -1.55768895
 C          3.19697189    1.65386200   -0.85778803
 C          3.30631399    0.15041600   -0.64181697
 H          3.66513491    2.18486810   -0.02585800
 H          2.13998199    1.93208396   -0.87054998
 H          3.66201997    1.95303798   -1.79688799
