34
wb97x-d4 ma-def2-tzvp(-f) cpcm(dmso) E: -955.829588349701, G: -955.5932669599999
 C          0.61265999   -2.11807394    1.36927605
 C         -0.14571300   -0.94139898    0.74454099
 H          1.04441595   -1.80953598    2.32773900
 O          1.62500703   -2.63444591    0.51671302
 H         -0.09822400   -2.92418790    1.56204498
 O         -1.46501696   -1.40457404    0.40621501
 C         -0.25415400    0.26523799    1.67770302
 H          0.37689400   -0.65083402   -0.17195100
 C         -1.10504496    1.36788905    1.03568900
 O          1.00621903    0.76421601    2.07834291
 H         -0.78478801   -0.06145800    2.58187795
 C         -2.26437402   -0.45221001   -0.25603300
 H          2.25415993   -1.88753104    0.39044401
 O         -0.45746499    1.99638498   -0.06803800
 O         -1.70129704   -0.03391400   -1.47751999
 H          1.71099198    0.50443602    1.43923604
 H         -0.47676000    1.37674296   -0.81298703
 C         -1.58248997   -1.08226395   -2.43887997
 C         -2.45779109    0.78463203    0.62604600
 H         -3.22025299   -0.95413798   -0.44195199
 H         -2.97815800    0.44925299    1.52595401
 O         -3.29146695    1.74792004    0.00606100
 H         -2.76922894    2.17624593   -0.68473399
 H         -1.26483297    2.15973592    1.77213800
 H         -0.85148102   -1.82820106   -2.11659002
 H         -1.25003803   -0.62152100   -3.36833906
 H         -2.55342889   -1.56523204   -2.59251809
 O          2.90428400   -0.25476599    0.42763200
 O          3.74791908   -0.49833900   -1.62384605
 C          3.13906503    1.70505404   -0.90524101
 C          3.28694701    0.20317900   -0.70136499
 H          3.58496189    2.24190998   -0.06488300
 H          2.07502604    1.95465505   -0.92504400
 H          3.60345507    2.02513289   -1.83773196
