34
wb97x-d4 ma-def2-tzvp(-f) cpcm(dmso) E: -955.829995906319, G: -955.5932665199999
 C          0.79163998   -1.98447704    0.18772800
 C         -0.24900800   -0.93176299   -0.20161401
 H          1.10983503   -1.81417704    1.22391796
 O          1.90939701   -2.04493594   -0.68015701
 H          0.29230401   -2.95605707    0.14504801
 O         -1.42854297   -1.33999097    0.51590699
 C          0.10387200    0.51126897    0.18492199
 H         -0.42626700   -0.99593502   -1.28166795
 C         -1.08957505    1.44448805   -0.03348900
 O          1.19939804    1.02094197   -0.54447198
 H          0.32205299    0.51732600    1.26276195
 C         -2.57194591   -0.55630201    0.27780399
 H          2.55711794   -1.38085496   -0.37267601
 O         -1.37376904    1.67819703   -1.41239405
 O         -2.94981098   -0.56356001   -1.07857704
 H          2.03872895    0.70116597   -0.12843300
 H         -1.77706397    0.87359202   -1.77077305
 C         -3.34769702   -1.84955394   -1.55278897
 C         -2.31492805    0.89319801    0.69299799
 H         -3.36436892   -1.00611496    0.88576698
 H         -2.10949898    0.88192600    1.76581299
 O         -3.45948505    1.70609605    0.50427401
 H         -3.53245306    1.88275099   -0.44266999
 H         -0.83728099    2.42387605    0.38079700
 H         -2.49915600   -2.53832793   -1.57474303
 H         -3.73152208   -1.70710504   -2.56235790
 H         -4.13540220   -2.26018310   -0.91233897
 O          3.38267207   -0.07832700    0.45252001
 O          5.52618694   -0.11721700    1.07470298
 C          4.40057611    1.99811006    1.00332797
 C          4.46367311    0.48490399    0.82947999
 H          3.93878698    2.46015596    0.12794800
 H          5.39220619    2.41994190    1.16655505
 H          3.76932812    2.22694206    1.86688006
