34
wb97x-d4 ma-def2-tzvp(-f) cpcm(dmso) E: -955.829265024313, G: -955.59310714
 C          0.99402899   -2.04124904    0.65451097
 C          0.00998000   -0.92225301    0.36639100
 H          0.90430599   -2.79623389   -0.12973499
 O          0.75690299   -2.70682693    1.89259601
 H          2.00800705   -1.63401902    0.62628698
 O         -1.27468598   -1.51490295    0.13006200
 C         -0.13398001    0.06836100    1.52259195
 H          0.34985501   -0.40702400   -0.53980100
 C         -1.10045397    1.18713999    1.13054299
 O          1.11159301    0.52861297    2.01583505
 H         -0.60575902   -0.47123000    2.35016704
 C         -2.26751709   -0.60054600   -0.28509501
 H          1.08926201   -2.14151192    2.59927511
 O         -0.66665298    2.00301290    0.05523100
 O         -2.00989699   -0.07389000   -1.55712700
 H          1.52338195    1.13827801    1.36027598
 H          0.31339601    2.10102797    0.03939300
 C         -2.13717794   -1.04400504   -2.59170604
 C         -2.42997503    0.54475498    0.72725397
 H         -3.19222593   -1.18993700   -0.31575900
 H         -2.87399197    0.10325900    1.62274897
 O         -3.35299206    1.50973797    0.25264600
 H         -2.92533588    1.94447505   -0.49726099
 H         -1.27775300    1.81206203    2.01702094
 H         -2.02485991   -0.51620799   -3.53871799
 H         -3.12411189   -1.52012503   -2.55338001
 H         -1.36331999   -1.81290901   -2.51002693
 O          2.02487898    2.13412809    0.07934200
 O          2.36766291    1.81198299   -2.10434699
 C          3.92571712    0.85297102   -0.55547702
 C          2.67919493    1.65290999   -0.90987003
 H          3.68246889    0.10072500    0.19788100
 H          4.66652012    1.52707696   -0.11671600
 H          4.35353613    0.37235400   -1.43503201
