34
wb97x-d4 ma-def2-tzvp(-f) cpcm(dmso) E: -955.829075627648, G: -955.59307386
 C         -1.13500702   -3.00673890    2.00581408
 C         -0.72915602   -1.80776203    1.16722703
 H         -1.61608803   -3.73787403    1.35201395
 O         -2.07591701   -2.70092201    3.03384209
 H         -0.23551200   -3.46197104    2.42934299
 O         -1.88833404   -1.35833299    0.45749101
 C         -0.15222900   -0.65144199    1.98775804
 H          0.03017400   -2.14813209    0.45400700
 C          0.22360601    0.50196302    1.06018102
 O          0.97973198   -1.07266700    2.73849201
 H         -0.90429097   -0.30743900    2.70225692
 C         -1.62672901   -0.33234799   -0.48275700
 H         -1.59932303   -2.32329893    3.78108406
 O          1.34981501    0.06043200    0.32304999
 O         -0.80665398   -0.75991702   -1.53208196
 H          1.72625995   -1.06578803    2.12263799
 H          1.56864798    0.70252901   -0.39825001
 C         -1.42915404   -1.74402595   -2.35223198
 C         -1.00247800    0.87493902    0.22284400
 H         -2.61406302   -0.05959200   -0.87602699
 H         -1.76186800    1.21024001    0.93752301
 O         -0.78201097    1.95714796   -0.66005701
 H          0.09616700    1.86702001   -1.08196402
 H          0.49331200    1.37801301    1.66660404
 H         -0.75496399   -1.93625104   -3.18698692
 H         -2.38912892   -1.37723100   -2.73472810
 H         -1.59508896   -2.67271304   -1.79845798
 O          2.85329008    3.10296702   -0.10463800
 O          1.79979503    1.84464598   -1.62419701
 C          2.82624888    3.85583591   -2.37731910
 C          2.48254490    2.86748004   -1.27061403
 H          1.92619097    4.42876577   -2.62012100
 H          3.13438392    3.32560802   -3.28025508
 H          3.60782504    4.54686213   -2.06148696
