34
wb97x-d4 ma-def2-tzvp(-f) cpcm(dmso) E: -955.829350120722, G: -955.59299134
 C          0.14046399   -2.70314908    1.13228405
 C         -0.35009301   -1.51215398    0.31805399
 H          0.04934200   -2.47083902    2.20161796
 O          1.47876894   -3.05148911    0.79778200
 H         -0.49041700   -3.56766891    0.91417199
 O         -1.75468302   -1.40640604    0.57767200
 C          0.34226701   -0.20949700    0.71564400
 H         -0.17725600   -1.72039902   -0.74413401
 C         -0.27515799    0.98590100   -0.02129000
 O          1.73024595   -0.34104300    0.47451699
 H          0.15383101   -0.05553500    1.78760195
 C         -2.39611006   -0.36904299   -0.13270199
 H          1.96440005   -2.20915294    0.75640798
 O          0.01770300    1.00924897   -1.41639602
 O         -2.29028511   -0.53748101   -1.52583396
 H          2.20614600    0.37600601    0.99461502
 H         -0.48903400    0.30019999   -1.83956099
 C         -2.94665790   -1.70957303   -2.00949788
 C         -1.78486502    0.98865902    0.22845000
 H         -3.44719696   -0.41814500    0.17070600
 H         -1.95856404    1.13769805    1.29637504
 O         -2.43745804    2.05089593   -0.44523799
 H         -2.11729789    2.05048490   -1.35715103
 H          0.15301700    1.90696096    0.38184699
 H         -3.98894596   -1.72376394   -1.67409694
 H         -2.44068599   -2.61380601   -1.66242003
 H         -2.91082907   -1.66438699   -3.09709501
 O          2.88893294    1.51253402    1.89222801
 O          3.93199992    3.48603511    1.92380905
 C          3.44544601    2.50481606   -0.20740899
 C          3.42640710    2.51501608    1.31991005
 H          3.96957994    1.61329901   -0.56090099
 H          3.93444490    3.39443707   -0.60305500
 H          2.42253804    2.45133901   -0.58690900
