34
wb97x-d4 ma-def2-tzvp(-f) cpcm(dmso) E: -955.829234027677, G: -955.59297955
 C          0.26484099   -2.66165805    1.31642401
 C         -0.23410399   -1.51624095    0.45828599
 H          1.35789299   -2.66972804    1.29764795
 O         -0.25718001   -3.92710590    0.90965402
 H         -0.06582000   -2.51229906    2.34740090
 O         -1.64206100   -1.39562500    0.69823200
 C          0.45264000   -0.19679600    0.81008798
 H         -0.05641200   -1.74653006   -0.59860897
 C         -0.14476100    0.94633299   -0.01710400
 O          1.85457599   -0.32275200    0.63571203
 H          0.23900799    0.01977000    1.86653996
 C         -2.28658891   -0.43665799   -0.11388300
 H          0.09700500   -4.12586689    0.03527900
 O          0.19928500    0.85794997   -1.39282405
 O         -2.23544502   -0.76160198   -1.47354805
 H          2.19895101    0.40882301    0.07418300
 H          1.07417202    1.29566503   -1.47644103
 C         -2.97456789   -1.93712103   -1.79028201
 C         -1.66704500    0.94658798    0.11370800
 H         -3.32900596   -0.43834099    0.22763599
 H         -1.91628599    1.22486699    1.14062202
 O         -2.24714398    1.92488897   -0.72989702
 H         -1.84093904    1.79960001   -1.59883499
 H          0.22358900    1.89799798    0.38515601
 H         -2.97052503   -2.03056192   -2.87621307
 H         -4.00782824   -1.85012805   -1.43387604
 H         -2.51441002   -2.82465506   -1.34644198
 O          2.69436193    1.72155201   -0.96365303
 O          2.47794104    3.94510698   -0.93930399
 C          3.48628592    2.88475394    0.95796198
 C          2.83697295    2.87111497   -0.42000800
 H          4.45690680    2.38480496    0.91329801
 H          2.86176205    2.32154393    1.65662897
 H          3.61392999    3.90231204    1.32646000
