34
wb97x-d4 ma-def2-tzvp(-f) cpcm(dmso) E: -955.829358570722, G: -955.5926676
 C          0.50377899   -2.52578807    1.04153705
 C         -0.18734200   -1.27568400    0.53069901
 H          0.40015900   -3.31705093    0.28998700
 O         -0.00608000   -2.96406198    2.29869604
 H          1.56422901   -2.31746292    1.18482101
 O         -1.56814694   -1.62542701    0.35146800
 C         -0.10705700   -0.09431700    1.49757004
 H          0.25866801   -1.00875401   -0.43430901
 C         -0.86293399    1.10765195    0.92966199
 O          1.22344196    0.21914300    1.86408401
 H         -0.62073398   -0.38775101    2.41773701
 C         -2.35999203   -0.61141998   -0.23235400
 H         -0.94972301   -3.12888002    2.18400311
 O         -0.28964201    1.66156900   -0.24440700
 O         -1.99333799   -0.34777400   -1.55707097
 H          1.70067894    0.57208699    1.07708395
 H          0.68477601    1.54247606   -0.27051300
 C         -2.28632689   -1.42863297   -2.43716192
 C         -2.29267097    0.68045998    0.59575701
 H         -3.38210511   -1.00849998   -0.20680700
 H         -2.80790806    0.46838701    1.53589904
 O         -3.01338100    1.72560894   -0.03482200
 H         -2.50609112    1.96647298   -0.82151097
 H         -0.91076499    1.87987196    1.70957005
 H         -2.06907511   -1.08361197   -3.44793200
 H         -3.34420204   -1.70779598   -2.36569190
 H         -1.66750002   -2.30160904   -2.21024394
 O          2.40014791    1.14218199   -0.38593301
 O          2.90405512    3.11404109    0.53999501
 C          4.38496113    2.22352695   -1.12163997
 C          3.14065289    2.17665100   -0.24600799
 H          4.09175587    2.16346407   -2.17280793
 H          5.01194000    1.35455596   -0.90658200
 H          4.95576811    3.13637400   -0.95277101
