34
wb97x-d4 ma-def2-tzvp(-f) cpcm(dmso) E: -955.829535155439, G: -955.59263148
 C          0.81913197   -1.78694606    1.37124896
 C         -0.09897700   -0.67191303    0.88027900
 H          0.30490699   -2.37210989    2.13938594
 O          2.00497890   -1.25504994    1.94902694
 H          1.05481696   -2.44355607    0.52807802
 O         -1.18773603   -1.31623304    0.21007399
 C         -0.64085299    0.18828100    2.02205706
 H          0.45929101   -0.04675900    0.17387800
 C         -1.65289795    1.21109402    1.50490606
 O          0.39846101    0.86091298    2.71583009
 H         -1.18359601   -0.48115900    2.70572805
 C         -2.11933494   -0.42154399   -0.35812899
 H          2.52915692   -0.82323599    1.21216297
 O         -1.06654000    2.24293804    0.71638298
 O         -1.52993906    0.41828799   -1.32071996
 H          1.15817499    0.25061700    2.72589803
 H         -0.80699098    1.85756803   -0.13379300
 C         -1.02745795   -0.28104499   -2.46006799
 C         -2.74047589    0.46732301    0.72535998
 H         -2.87914801   -1.05391705   -0.82933903
 H         -3.26963496   -0.19567101    1.41303396
 O         -3.70620608    1.35086203    0.18398701
 H         -3.22723198    2.04809308   -0.28322500
 H         -2.10923600    1.71901405    2.35843205
 H         -0.15612100   -0.88472402   -2.19571996
 H         -0.74148798    0.47357100   -3.19165206
 H         -1.80683005   -0.92516100   -2.88037992
 O          3.41500807   -0.02080300    0.09927200
 O          2.72249293   -1.45810103   -1.47079003
 C          3.43974209    0.71785301   -2.16333199
 C          3.17651010   -0.35090399   -1.10620606
 H          3.49122906    0.28396201   -3.16222811
 H          4.36077690    1.26044405   -1.94232202
 H          2.61601591    1.43801296   -2.13711596
