34
wb97x-d4 ma-def2-tzvp(-f) cpcm(dmso) E: -955.829173807695, G: -955.59232587
 C          0.88671499   -1.58704996    0.14818600
 C         -0.33233199   -0.66501403    0.00618900
 H          1.51042295   -1.26251900    0.98715001
 O          1.66887701   -1.66376400   -1.03244102
 H          0.51717001   -2.59041190    0.37612101
 O         -1.49544406   -1.44023299    0.34727001
 C         -0.27028701    0.56443501    0.91168803
 H         -0.39846399   -0.33971500   -1.03579497
 C         -1.54616702    1.39705205    0.79365599
 O          0.79650199    1.42344201    0.55354297
 H         -0.17536099    0.22811200    1.95298696
 C         -2.71830297   -0.77171999    0.12901799
 H          2.36368608   -0.96292502   -0.99121702
 O         -1.60365105    2.06171203   -0.46573499
 O         -2.93807101   -0.47652599   -1.22227299
 H          1.67677498    1.03848898    0.79842001
 H         -0.71566498    2.40901995   -0.62401003
 C         -3.13340211   -1.64310706   -2.01699305
 C         -2.78161192    0.51864100    0.95352399
 H         -3.48709607   -1.46961701    0.48154199
 H         -2.82305503    0.20670500    1.99988198
 O         -3.97785807    1.23644996    0.69928801
 H         -3.95595288    1.49379098   -0.23157200
 H         -1.55051506    2.14739490    1.59457505
 H         -3.40271711   -1.30514598   -3.01728392
 H         -3.94422889   -2.25640297   -1.60710001
 H         -2.21933603   -2.24145508   -2.06850791
 O          3.29451799    0.69614202    1.13401103
 O          3.69318604    0.11696200   -0.98943502
 C          5.48767614    1.05616295    0.28370699
 C          4.04668379    0.59004998    0.12421700
 H          6.00485992    0.37124899    0.96173298
 H          5.51166677    2.04869294    0.73777801
 H          6.01078176    1.07110596   -0.67212200
