34
wb97x-d4 ma-def2-tzvp(-f) cpcm(dmso) E: -955.828985522543, G: -955.5921582899999
 C          0.39451700   -2.53662801    1.33650005
 C         -0.15407699   -1.27998495    0.68637800
 H          0.30922201   -3.36614203    0.62479901
 O         -0.26796600   -2.85740590    2.55716109
 H          1.44781494   -2.38983488    1.57616997
 O         -1.52895904   -1.55442202    0.38340399
 C         -0.08773800   -0.04977400    1.59391797
 H          0.40395600   -1.10283506   -0.23976700
 C         -0.71656901    1.16290200    0.90292102
 O          1.22171497    0.19978499    2.07127595
 H         -0.70214498   -0.25984401    2.47409391
 C         -2.18815494   -0.52649897   -0.32844600
 H         -1.20706606   -2.95285606    2.35723305
 O         -0.00072200    1.65327501   -0.22075000
 O         -1.66024399   -0.34792900   -1.61222100
 H          1.81436598    0.34070101    1.29903698
 H          0.91626698    1.29531002   -0.26295200
 C         -1.91661096   -1.45449197   -2.47184992
 C         -2.13132691    0.79486799    0.45041299
 H         -3.22934389   -0.86358398   -0.40268701
 H         -2.74675989    0.65168899    1.34231400
 O         -2.72525311    1.84778595   -0.29013899
 H         -2.10920501    2.04604411   -1.00857902
 H         -0.79820198    1.96815395    1.64523804
 H         -1.39047801   -2.35024595   -2.12936997
 H         -1.55485594   -1.17874002   -3.46232295
 H         -2.99179792   -1.66378903   -2.52031589
 O          2.50122905    0.65611202   -0.24572399
 O          4.59890223    1.28358996    0.19013999
 C          3.30093694    2.62968302   -1.31068802
 C          3.50434899    1.43885195   -0.38200900
 H          2.56907606    3.30696607   -0.86141998
 H          2.89138508    2.29126906   -2.26506996
 H          4.23373222    3.16802311   -1.47668803
