34
wb97x-d4 ma-def2-tzvp(-f) cpcm(dmso) E: -955.828971153276, G: -955.59189728
 C          0.41832501   -2.52285004    1.35305202
 C         -0.13851100   -1.27258801    0.69750702
 H          0.35337499   -3.35173106    0.63854802
 O         -0.25542599   -2.85568690    2.56440997
 H          1.46634400   -2.36285400    1.60698903
 O         -1.50416696   -1.56662905    0.37246799
 C         -0.10038000   -0.04424300    1.60901797
 H          0.43134099   -1.08516705   -0.21897000
 C         -0.75141799    1.16209698    0.92682600
 O          1.20556498    0.22971100    2.08587003
 H         -0.70899498   -0.27046299    2.48910594
 C         -2.16478205   -0.54477698   -0.34704199
 H         -1.18863404   -2.97543001    2.35074592
 O         -0.02958700    1.69481099   -0.17280400
 O         -1.60651398   -0.34227401   -1.61412895
 H          1.79259396    0.36594599    1.31120801
 H          0.87957501    1.31713104   -0.24155800
 C         -1.80692303   -1.44901800   -2.48827696
 C         -2.15087199    0.76764399    0.44765100
 H         -3.19695807   -0.90097302   -0.45209000
 H         -2.77801394    0.59995401    1.32701004
 O         -2.75380993    1.81724405   -0.29024199
 H         -2.12115192    2.04842591   -0.98416603
 H         -0.86485797    1.95207000    1.68109202
 H         -1.26378500   -2.33165908   -2.13830590
 H         -1.42726004   -1.15448701   -3.46654606
 H         -2.87368894   -1.68982196   -2.56708908
 O          2.43967390    0.64498299   -0.28104100
 O          4.63014698    1.06523895   -0.18475799
 C          3.21161103    2.68061996   -1.24435699
 C          3.46882510    1.36792696   -0.51445800
 H          2.65288591    2.48880005   -2.16351891
 H          4.14341688    3.19451809   -1.47902703
 H          2.59205508    3.32353091   -0.61312199
