34
wb97x-d4 ma-def2-tzvp(-f) cpcm(dmso) E: -955.828969484492, G: -955.59186707
 C          0.37007901   -2.54224896    1.36637700
 C         -0.15996300   -1.29682696    0.68274301
 H          0.30186701   -3.38333106    0.66675597
 O         -0.32226399   -2.84281206    2.57594991
 H          1.41714394   -2.39233088    1.63056004
 O         -1.53034699   -1.57440805    0.35647199
 C         -0.11127900   -0.04958000    1.56643403
 H          0.41681299   -1.13910496   -0.23556000
 C         -0.71958601    1.14946103    0.83491099
 O          1.18619096    0.20542800    2.07330394
 H         -0.74671501   -0.24032900    2.43606806
 C         -2.17572594   -0.55938500   -0.38675201
 H         -1.25561702   -2.94667912    2.35502911
 O          0.01618800    1.60488105   -0.29062399
 O         -1.62703204   -0.40988201   -1.66465402
 H          1.79866099    0.36106801    1.31954098
 H          0.94757497    1.28029799   -0.28488901
 C         -1.87331200   -1.53267598   -2.50633097
 C         -2.12740707    0.77816403    0.36494100
 H         -3.21569395   -0.89792502   -0.46903801
 H         -2.76007390    0.65836602    1.24808502
 O         -2.70306206    1.81819999   -0.40782699
 H         -2.07239890    2.00267792   -1.11697698
 H         -0.80965698    1.97308397    1.55590606
 H         -1.50220001   -1.27310300   -3.49765110
 H         -2.94753098   -1.74493504   -2.56117892
 H         -1.34891999   -2.42107296   -2.14246607
 O          2.53994489    0.68809700   -0.19359501
 O          4.61574316    1.36200905    0.27729201
 C          3.27864194    2.73619795   -1.16052103
 C          3.51824093    1.50800300   -0.29119301
 H          4.20435190    3.28304911   -1.33838201
 H          2.56838608    3.39391804   -0.65093797
 H          2.82895589    2.44372702   -2.11178994
