34
wb97x-d4 ma-def2-tzvp(-f) cpcm(dmso) E: -955.829630007189, G: -955.59135272
 C         -1.38911605   -2.71476007    2.20931602
 C         -0.84026700   -1.69350004    1.22078097
 H         -2.02651191   -2.20408201    2.94335699
 O         -0.35021600   -3.44194698    2.85863400
 H         -2.00256801   -3.43851089    1.66832399
 O         -1.96619201   -1.21059895    0.48401800
 C         -0.14550599   -0.51900798    1.91488504
 H         -0.13318899   -2.18803191    0.54636699
 C          0.31008399    0.51038700    0.88686001
 O          0.97016501   -0.97166300    2.68478703
 H         -0.84705901   -0.05597400    2.61435699
 C         -1.63291001   -0.30066600   -0.55385900
 H          0.31920600   -2.78969312    3.11641407
 O          1.38756204   -0.09379200    0.19026700
 O         -0.87538803   -0.89550400   -1.56439304
 H          1.70884395   -1.05019498    2.06266403
 H          1.68625605    0.48927400   -0.54934502
 C         -1.60846198   -1.86276698   -2.31077695
 C         -0.89777601    0.90746802    0.03244200
 H         -2.60201311    0.01932500   -0.95556402
 H         -1.61392796    1.35691404    0.72984898
 O         -0.62241602    1.88944101   -0.94453001
 H          0.27310801    1.75313103   -1.32854795
 H          0.66072500    1.41078699    1.40992606
 H         -2.52631211   -1.42136598   -2.71657109
 H         -1.86787295   -2.72631097   -1.69137204
 H         -0.96567398   -2.18380094   -3.13035798
 O          1.94175506    1.62055099   -1.75357997
 O          3.91311693    2.35976601   -1.00963295
 C          2.33304000    3.96743011   -1.82352197
 C          2.78272891    2.55077004   -1.49440396
 H          1.37364101    4.17079687   -1.34188402
 H          2.18216205    4.05405092   -2.90294600
 H          3.07098699    4.70207977   -1.50196004
