27
wb97x-d4 ma-def2-tzvp(-f) cpcm(dmso) E: -727.027102417071, G: -726.83648211
 C         -1.15352595    0.48368800   -0.39470500
 C         -1.36736798   -0.95105600    0.07914500
 O         -0.02194000    1.02892196    0.28161100
 C         -2.32885599    1.39900994   -0.10449100
 H         -0.97862399    0.48310700   -1.48017502
 C          1.19163501    0.36045599   -0.03822700
 C          1.11474299   -1.08841002    0.43586600
 C         -0.10873600   -1.76169896   -0.17791000
 H          1.02572000   -1.08840203    1.52538002
 O          2.29486394   -1.82030499    0.13292700
 O         -0.31454200   -3.06046605    0.36665401
 H          0.03970400   -1.83489501   -1.26539600
 O         -2.47908902   -1.48832798   -0.62706399
 H         -1.56980205   -0.94168001    1.15646505
 H         -2.09697700    2.39695191   -0.49292001
 O         -2.64911890    1.46110702    1.28166604
 H         -3.21338701    1.02216101   -0.61848402
 H         -1.87735605    1.80945206    1.74421799
 H         -2.56070805   -2.41603398   -0.37397000
 H          0.46821901   -3.59010506    0.17172199
 H          2.42442107   -1.81202602   -0.82476401
 O          2.22992611    1.00124002    0.61771798
 H          1.34110105    0.39971301   -1.13112402
 C          2.57206893    2.26223803    0.03857800
 H          3.44570589    2.62789798    0.57691997
 H          1.75284398    2.97803712    0.14179701
 H          2.81908107    2.13942409   -1.02143705
