27
wb97x-d4 ma-def2-tzvp(-f) cpcm(dmso) E: -727.02665621952, G: -726.83611965
 C         -1.11124897    0.58931601   -0.30760300
 C         -1.33431196   -0.88903397   -0.00219000
 O          0.07266400    1.01844800    0.36122301
 C         -2.26088595    1.48306406    0.12734100
 H         -0.98935401    0.71308601   -1.39387000
 C          1.22530305    0.35237700   -0.12537199
 C          1.14543796   -1.14212596    0.17691299
 C         -0.12426600   -1.70901406   -0.44003201
 H          1.11154306   -1.26433802    1.26835299
 O          2.26314902   -1.82374299   -0.37005699
 O         -0.31882101   -3.08785510   -0.14120001
 H         -0.04096900   -1.65677798   -1.53040099
 O         -2.50803208   -1.31218398   -0.68229997
 H         -1.46013200   -1.00936306    1.08237195
 H         -1.96193397    2.52184510   -0.02779800
 O         -2.59592891    1.35440695    1.50630200
 H         -3.12789893    1.27588606   -0.50565302
 H         -3.16161489    0.58174902    1.61330795
 H         -2.55663800   -2.27289605   -0.59445000
 H         -0.30171701   -3.19706392    0.81882298
 H          3.05569506   -1.44324601    0.02867300
 O          2.34228206    0.85995603    0.52423900
 H          1.30486298    0.51199299   -1.21316195
 C          2.74670506    2.14380288    0.04255200
 H          1.97119105    2.89192891    0.22469600
 H          2.96534991    2.09536099   -1.02929497
 H          3.64957094    2.41441989    0.58858901
