27
wb97x-d4 ma-def2-tzvp(-f) cpcm(dmso) E: -727.025988617183, G: -726.83552289
 C         -1.03838897    0.44588700   -0.21696700
 C         -1.14477396   -1.01219499    0.24250001
 O          0.12775700    1.03321099    0.34751299
 C         -2.19511604    1.30769801    0.26499099
 H         -0.98671001    0.47365099   -1.31485605
 C          1.33001399    0.41927999   -0.10020400
 C          1.36432505   -1.02553499    0.37743601
 C          0.12898199   -1.75187194   -0.13107300
 H          1.36149096   -1.02157497    1.47503495
 O          2.54623604   -1.63690603   -0.11754800
 O          0.16542099   -3.06667399    0.41694999
 H          0.18509600   -1.80681300   -1.22636998
 O         -2.22395992   -1.69650900   -0.38288000
 H         -1.26130903   -1.02646303    1.33495104
 H         -2.23270607    1.27637994    1.35893500
 O         -3.40518188    0.79010499   -0.29571500
 H         -2.03170395    2.34124207   -0.05551500
 H         -4.15055895    1.19366896    0.16297300
 H         -2.99483490   -1.11000097   -0.33208501
 H         -0.50171101   -3.59644389   -0.03500000
 H          2.46816301   -2.58387899    0.05482900
 O          2.39896393    1.10682905    0.45101300
 H          1.36678600    0.45991799   -1.20093298
 C          2.62688589    2.37937593   -0.15823200
 H          3.53369403    2.78357410    0.29011801
 H          1.79229498    3.05983400    0.02799200
 H          2.77084494    2.26421189   -1.23786104
