27
wb97x-d4 ma-def2-tzvp(-f) cpcm(dmso) E: -727.026082328068, G: -726.8352867799999
 C         -1.06914794    0.60270900   -0.11861500
 C         -1.23558903   -0.87353802    0.23955300
 O          0.16864000    1.05838203    0.41524199
 C         -2.16183710    1.48336399    0.47708800
 H         -1.07560694    0.71442598   -1.21212399
 C          1.29095602    0.41835099   -0.18221800
 C          1.26509905   -1.06699002    0.15496001
 C         -0.05881500   -1.66819596   -0.30612800
 H          1.35256696   -1.16589499    1.24584198
 O          2.35820603   -1.69885397   -0.49357501
 O         -0.14243200   -3.04930997    0.03701800
 H         -0.09532200   -1.63959599   -1.39973998
 O         -2.46771097   -1.33033204   -0.31196100
 H         -1.25729501   -0.96199203    1.33449399
 H         -2.24874091    1.27783203    1.55149603
 O         -3.41086602    1.30585098   -0.18020500
 H         -1.87674105    2.52912807    0.34841999
 H         -3.59107900    0.35500899   -0.19255100
 H         -2.57665706   -2.25932598   -0.07413300
 H         -0.10745000   -3.12797594    1.00014102
 H          2.21919894   -2.65203094   -0.42231199
 O          2.44242907    0.98381799    0.33890599
 H          1.24544597    0.56230402   -1.27400601
 C          2.69852996    2.30120707   -0.15347600
 H          2.70555902    2.30362511   -1.24867702
 H          3.68076301    2.58959889    0.21893500
 H          1.94789505    3.00843096    0.20762800
