27
wb97x-d4 ma-def2-tzvp(-f) cpcm(dmso) E: -727.023906467211, G: -726.8341766899999
 C         -1.32729602    0.44181499   -0.26309100
 C         -1.18695605   -0.85224599    0.53873700
 O         -0.09192800    1.15300500   -0.23754001
 C         -2.39717889    1.34886205    0.31815001
 H         -1.58604205    0.18914400   -1.30202901
 C          0.96734500    0.43712801   -0.84968197
 C          1.24203503   -0.84263700   -0.05464500
 C         -0.02932500   -1.67306805   -0.00694300
 H          1.53475797   -0.58698797    0.96941102
 O          2.24209905   -1.63281202   -0.68385202
 O          0.10925800   -2.81441689    0.83367598
 H         -0.27935201   -1.99216902   -1.02762198
 O         -2.40717697   -1.57456803    0.43771899
 H         -0.97870201   -0.60002297    1.58741200
 H         -3.30954409    0.76700902    0.47314399
 O         -2.65490389    2.48953009   -0.49623001
 H         -2.05577707    1.72584105    1.28530300
 H         -3.11753392    2.19153810   -1.28837597
 H         -2.25737405   -2.44294405    0.83252198
 H          0.73009598   -3.42171502    0.41431001
 H          3.08874702   -1.17824805   -0.60329098
 O          2.07454991    1.27716804   -0.96575600
 H          0.69442803    0.17313901   -1.87948704
 C          2.63154006    1.75241601    0.26556599
 H          3.33773589    2.53593206   -0.00626900
 H          3.16738796    0.95927399    0.79493701
 H          1.85911298    2.17003298    0.91392601
