27
wb97x-d4 ma-def2-tzvp(-f) cpcm(dmso) E: -727.024616662044, G: -726.83403799
 C         -1.31250095    0.44743201   -0.58303499
 C         -1.28372002   -0.83744502    0.23918100
 O         -0.11379700    1.18653798   -0.35321501
 C         -2.46999002    1.36310303   -0.22668700
 H         -1.39238298    0.18866700   -1.64877403
 C          1.05547202    0.49589199   -0.77416199
 C          1.21282995   -0.77830797    0.06314300
 C         -0.03685900   -1.63641703   -0.09863700
 H          1.31954706   -0.51249099    1.11691701
 O          2.38416004   -1.50354898   -0.28421101
 O         -0.01048100   -2.76723409    0.76574498
 H         -0.10618000   -1.96885002   -1.14470005
 O         -2.46242809   -1.57537997   -0.06089500
 H         -1.25814295   -0.57805002    1.30401802
 H         -2.42666602    2.24780607   -0.87138599
 O         -2.46777797    1.74207103    1.14607406
 H         -3.41056395    0.84335798   -0.41069999
 H         -1.64880896    2.22408199    1.31371498
 H         -2.39267707   -2.42371511    0.39416799
 H          0.74076802   -3.31714702    0.51239699
 H          2.34645391   -1.71786404   -1.22577095
 O          2.13406491    1.36952698   -0.71294099
 H          0.95448899    0.22889900   -1.83543301
 C          2.56777596    1.73752797    0.60010701
 H          3.10402393    0.91530502    1.08124101
 H          1.72647595    2.04699111    1.22452605
 H          3.24691510    2.57925296    0.46931699
