27
wb97x-d4 ma-def2-tzvp(-f) cpcm(dmso) E: -727.024084740949, G: -726.83387561
 C         -1.24373698    0.57377499   -0.56689501
 C         -1.27236402   -0.75565797    0.18200500
 O         -0.00826600    1.23318601   -0.29957700
 C         -2.37955904    1.50823998   -0.18490499
 H         -1.32790101    0.37596300   -1.64581895
 C          1.10554898    0.50525701   -0.79089898
 C          1.20787096   -0.83788401   -0.06210600
 C         -0.08992200   -1.60890102   -0.24378300
 H          1.36403704   -0.66746199    1.00849295
 O          2.25356889   -1.63367605   -0.60505497
 O         -0.11616600   -2.79406404    0.54523498
 H         -0.20381901   -1.86612403   -1.30529594
 O         -2.50534201   -1.40122902   -0.10857100
 H         -1.18991005   -0.56050903    1.25855803
 H         -2.21116710    2.46883607   -0.67622101
 O         -2.45842004    1.76979697    1.21370399
 H         -3.31930208    1.09062099   -0.55566603
 H         -2.93095589    1.04206395    1.63282704
 H         -2.46686101   -2.28158212    0.28594199
 H          0.54790598   -3.40001297    0.19588700
 H          3.09985709   -1.24407697   -0.35605100
 O          2.24730396    1.29640901   -0.67704201
 H          0.98372197    0.32279199   -1.86652803
 C          2.64077902    1.63908195    0.65640599
 H          3.38800311    2.42559910    0.55739999
 H          3.09049606    0.78583503    1.17253602
 H          1.79460001    2.01372290    1.23541701
