27
wb97x-d4 ma-def2-tzvp(-f) cpcm(dmso) E: -727.02410565849, G: -726.83365528
 C         -1.22110605    0.61473602   -0.45876500
 C         -1.23303294   -0.68767202    0.33924699
 O          0.04036700    1.25152099   -0.28980201
 C         -2.27871704    1.60516906    0.01649100
 H         -1.38887596    0.39103901   -1.52177596
 C          1.11332297    0.47803599   -0.80786598
 C          1.22704899   -0.83248901   -0.02249600
 C         -0.09183300   -1.58498096   -0.10499300
 H          1.43881094   -0.61575198    1.02982795
 O          2.22835207   -1.67529702   -0.57695198
 O         -0.09888900   -2.73154306    0.73709899
 H         -0.26383600   -1.88475895   -1.14742398
 O         -2.49414301   -1.31995797    0.13439800
 H         -1.10302699   -0.44618499    1.40201199
 H         -2.19532299    1.73102200    1.10340297
 O         -3.59352708    1.20704198   -0.35220301
 H         -2.09092212    2.57011294   -0.45784199
 H         -3.70320010    0.29062900   -0.06024000
 H         -2.51284790   -2.12349796    0.66858000
 H          0.55843598   -3.35163093    0.39943299
 H          3.09506607   -1.31219900   -0.36059901
 O          2.27189898    1.25047803   -0.78896898
 H          0.92868602    0.25199199   -1.86564600
 C          2.74020505    1.64480603    0.50593400
 H          3.19761205    0.80594200    1.03844500
 H          1.93220901    2.06482410    1.10784495
 H          3.49726701    2.40861392    0.33285800
