27
wb97x-d4 ma-def2-tzvp(-f) cpcm(dmso) E: -727.02410389798, G: -726.83365172
 C         -1.23489702    0.61941397   -0.40652499
 C         -1.22004998   -0.70728600    0.35088000
 O          0.02726600    1.25790298   -0.25160900
 C         -2.28521705    1.58898997    0.12482700
 H         -1.43026805    0.42679301   -1.47095299
 C          1.08985496    0.50724602   -0.82199502
 C          1.23039103   -0.82554799   -0.08005600
 C         -0.08642200   -1.58301997   -0.15194200
 H          1.46819401   -0.63953602    0.97256100
 O          2.22075391   -1.64592600   -0.68556100
 O         -0.06354600   -2.75737095    0.65063500
 H         -0.28421900   -1.84872496   -1.19911397
 O         -2.48403597   -1.33800399    0.15839800
 H         -1.06315100   -0.49838799    1.41677499
 H         -2.17768788    1.68018901    1.21312594
 O         -3.60640693    1.19672000   -0.22713301
 H         -2.11158705    2.56966209   -0.32182699
 H         -3.70412707    0.27023900    0.03607200
 H         -2.49839592   -2.14461994    0.68776202
 H          0.60001600   -3.35390496    0.28387401
 H          3.09168291   -1.29006803   -0.47446600
 O          2.24479389    1.28553903   -0.81102997
 H          0.87759602    0.31208101   -1.88072395
 C          2.74270511    1.64888501    0.48207799
 H          3.49875307    2.41375804    0.30938700
 H          3.20840096    0.79696703    0.98584998
 H          1.94960594    2.05801105    1.11070895
