27
wb97x-d4 ma-def2-tzvp(-f) cpcm(dmso) E: -727.023208276757, G: -726.83304014
 C         -1.30992198    0.43574199   -0.30088001
 C         -1.18299603   -0.84524798    0.52418202
 O         -0.09145900    1.17089200   -0.23155600
 C         -2.42115593    1.32814205    0.22286500
 H         -1.51915801    0.16474301   -1.34649801
 C          1.01375997    0.47310701   -0.78783298
 C          1.27900100   -0.77697098    0.05858000
 C          0.02372500   -1.64114296    0.05489200
 H          1.49996197   -0.48348400    1.08700097
 O          2.40853000   -1.50901902   -0.39574000
 O          0.15400200   -2.76363707    0.91982198
 H         -0.16700000   -1.98340595   -0.97296101
 O         -2.37967110   -1.59692395    0.36653599
 H         -1.03694499   -0.57566899    1.57901394
 H         -3.32883692    0.73017299    0.33974400
 O         -2.66140103    2.45924401   -0.60965699
 H         -2.13147497    1.71688402    1.20216000
 H         -3.07165599    2.14810491   -1.42516994
 H         -2.25564098   -2.43561697    0.82789201
 H          0.90814900   -3.28459311    0.61776000
 H          2.27386308   -1.74272799   -1.32365096
 O          2.08990312    1.34698105   -0.89073700
 H          0.77818602    0.17693500   -1.81951296
 C          2.66308594    1.77799594    0.34814301
 H          3.24533796    0.97732598    0.81198901
 H          1.89349103    2.12555194    1.04092705
 H          3.32632399    2.60661602    0.10268700
