27
wb97x-d4 ma-def2-tzvp(-f) cpcm(dmso) E: -727.023473637182, G: -726.8326592
 C         -1.22618306    0.60094100   -0.41567400
 C         -1.19552898   -0.70347202    0.37847301
 O          0.01462600    1.27693403   -0.24774200
 C         -2.31458211    1.55545497    0.06394000
 H         -1.38980603    0.37485200   -1.47895396
 C          1.11402905    0.54494703   -0.77782899
 C          1.27426696   -0.75683099    0.01679300
 C         -0.02174700   -1.55678904   -0.06688000
 H          1.47085798   -0.52353197    1.06528497
 O          2.38065004   -1.52568400   -0.43312699
 O          0.01790900   -2.70473599    0.77152598
 H         -0.18632001   -1.86047804   -1.11106706
 O         -2.43557191   -1.37598097    0.16959700
 H         -1.07400095   -0.46123299    1.44193304
 H         -2.23397708    1.67971003    1.15130603
 O         -3.61636996    1.11684704   -0.30528000
 H         -2.15769601    2.52778292   -0.40653101
 H         -3.69493008    0.19552100   -0.01856700
 H         -2.45024109   -2.15858412    0.73366398
 H          0.75908703   -3.25336289    0.48679000
 H          2.26183295   -1.71828103   -1.37269294
 O          2.23438191    1.36578500   -0.78110200
 H          0.91744202    0.31071699   -1.83309996
 C          2.77450705    1.68912601    0.50450999
 H          1.99274695    2.02435303    1.18985295
 H          3.48131800    2.50160193    0.34030500
 H          3.30330205    0.83438897    0.93456900
