27
wb97x-d4 ma-def2-tzvp(-f) cpcm(dmso) E: -727.021503517049, G: -726.83092432
 C         -1.44241405    0.29825699   -0.33674800
 C         -1.51698399   -1.19231498    0.02637900
 O         -0.28349000    0.60400498   -1.12424600
 C         -1.55408895    1.17807603    0.90642703
 H         -2.27872896    0.52927500   -0.99810803
 C          0.96968400    0.29679400   -0.54810101
 C          0.93002403   -0.96176398    0.32272100
 C         -0.17337100   -1.87173104   -0.19013999
 H          0.72871298   -0.69260901    1.36455095
 O          2.16153502   -1.66825402    0.23925599
 O         -0.19863001   -3.11400104    0.50007403
 H         -0.02645800   -2.04213190   -1.26408505
 O         -2.54573989   -1.79812503   -0.75237399
 H         -1.76353800   -1.29150903    1.09147298
 H         -2.53580904    1.00328195    1.35304904
 O         -1.47922206    2.56123996    0.59445798
 H         -0.79482901    0.90978199    1.64791906
 H         -0.58060199    2.73406196    0.28925499
 H         -2.62956405   -2.71580410   -0.46489099
 H          0.68406999   -3.49911308    0.42929101
 H          2.78377104   -1.27682197    0.86264700
 O          1.46868706    1.35649705    0.22985600
 H          1.63734305    0.11718300   -1.39742398
 C          2.00372100    2.42498899   -0.55385202
 H          1.23854899    2.85989404   -1.20471895
 H          2.83799410    2.06854606   -1.16665101
 H          2.35937691    3.18230104    0.14398400
