27
wb97x-d4 ma-def2-tzvp(-f) cpcm(dmso) E: -727.022620610506, G: -726.8305841
 C         -1.27304196    0.36258501   -0.56792903
 C         -1.39014399   -1.06926405   -0.00484100
 O          0.01548000    0.61395800   -1.15613997
 C         -1.68384004    1.43562901    0.43413299
 H         -1.95789599    0.44626299   -1.41565096
 C          1.16598594    0.29323900   -0.41418499
 C          1.04523599   -1.02468204    0.35246301
 C         -0.09722400   -1.84370995   -0.21876900
 H          0.82582402   -0.81206399    1.40541601
 O          2.29774594   -1.68693495    0.24445599
 O         -0.11762700   -3.08811307    0.46942100
 H          0.06598300   -2.00968003   -1.29182696
 O         -2.50684500   -1.77103305   -0.54630399
 H         -1.57667196   -1.02777100    1.07017803
 H         -1.54502797    2.41905594   -0.03011400
 O         -1.00603700    1.36453497    1.68174505
 H         -2.74816895    1.30411506    0.64607501
 H         -0.06090600    1.50718606    1.50284302
 H         -2.40734506   -1.80899298   -1.50650096
 H         -0.87305403   -3.59190202    0.14212200
 H          2.23343897   -2.50904012    0.74606597
 O          1.51517999    1.30160999    0.51074398
 H          1.96116102    0.20345300   -1.16075099
 C          1.94392204    2.51556897   -0.11457300
 H          2.79084802    2.31724095   -0.77893198
 H          2.25326300    3.18797898    0.68442798
 H          1.12976301    2.97076607   -0.68357301
