27
wb97x-d4 ma-def2-tzvp(-f) cpcm(dmso) E: -727.019604385239, G: -726.82959637
 C         -1.19073796    0.30821699   -0.47772899
 C         -1.12666905   -0.91161501    0.44513699
 O          0.04289400    0.54229403   -1.16975403
 C         -1.68054104    1.53558898    0.27983299
 H         -1.90923905    0.07338300   -1.26934099
 C          1.23284602    0.19796000   -0.49180600
 C          1.26727700   -1.27995396   -0.05060700
 C         -0.11692800   -1.90192997   -0.10204800
 H          1.62375998   -1.31618798    0.98285002
 O          2.10947204   -2.06405210   -0.88983399
 O         -0.19481701   -3.07995200    0.69414902
 H         -0.36893699   -2.13517690   -1.14358103
 O         -2.43450689   -1.46824002    0.49453101
 H         -0.81468302   -0.61405700    1.45577002
 H         -2.60650301    1.26391697    0.80014199
 O         -1.88866198    2.66575789   -0.56159502
 H         -0.94362301    1.83241200    1.02578402
 H         -2.61304808    2.46165705   -1.16500604
 H         -2.37086391   -2.29431295    0.99074697
 H          0.32307699   -3.76962399    0.26318800
 H          3.02795196   -1.87238705   -0.66705602
 O          1.45420504    0.98860401    0.64792103
 H          2.02239203    0.37453300   -1.23051405
 C          1.73117495    2.35306001    0.33447200
 H          2.60977006    2.42201710   -0.31645200
 H          1.93580306    2.85868192    1.27778196
 H          0.87913501    2.82940507   -0.15698101
