27
wb97x-d4 ma-def2-tzvp(-f) cpcm(dmso) E: -727.019033441481, G: -726.82948989
 C         -1.09269595    0.15605401   -0.62096399
 C         -0.98513198   -1.04661703    0.32489100
 O          0.16858099    0.50174201   -1.21546805
 C         -1.75668895    1.33704805    0.06025000
 H         -1.71645105   -0.15431200   -1.46396804
 C          1.32660198    0.27037400   -0.44403699
 C          1.46065998   -1.18863797    0.01963900
 C          0.15093100   -1.93651199   -0.14954600
 H          1.71488202   -1.18520403    1.08449602
 O          2.51540709   -1.78447902   -0.72996598
 O          0.23226300   -3.13629603    0.60788298
 H          0.00063600   -2.17191291   -1.21101999
 O         -2.19146800   -1.80752397    0.29051700
 H         -0.78237998   -0.72514600    1.35249400
 H         -2.68983507    0.98410797    0.51709300
 O         -2.02743602    2.33873391   -0.91872603
 H         -1.11003304    1.72733796    0.85085398
 H         -2.39949608    3.10414791   -0.46701500
 H         -2.72462511   -1.58279896    1.06002498
 H         -0.63904798   -3.55167007    0.56970203
 H          2.62575006   -2.68874788   -0.41138601
 O          1.38671803    1.08863401    0.69608301
 H          2.15347910    0.50785702   -1.12139797
 C          1.55825102    2.46956992    0.37990099
 H          1.64570701    3.00163794    1.32665801
 H          0.70370400    2.85889196   -0.17921400
 H          2.47171688    2.61372304   -0.20777901
