27
wb97x-d4 ma-def2-tzvp(-f) cpcm(dmso) E: -727.021744337848, G: -726.82947901
 C         -1.30225003    0.39667401   -0.52904898
 C         -1.44119501   -1.07831502   -0.08421600
 O         -0.03618200    0.66788900   -1.15378106
 C         -1.64600694    1.39419997    0.57125098
 H         -2.02200794    0.56140798   -1.33434296
 C          1.13772905    0.29452500   -0.47486201
 C          1.00816298   -1.04567802    0.24577600
 C         -0.14903399   -1.84278405   -0.34237400
 H          0.79909497   -0.86466902    1.30785406
 O          2.24508810   -1.72804201    0.10601800
 O         -0.17349200   -3.15743899    0.20138299
 H          0.00304700   -1.96978903   -1.41876400
 O         -2.56839991   -1.70476794   -0.68627101
 H         -1.63948500   -1.11076903    0.99094099
 H         -1.51713097    2.40863800    0.17641699
 O         -0.90747499    1.22182095    1.77345204
 H         -2.70018291    1.25726497    0.82638103
 H          0.02601200    1.39358997    1.56360602
 H         -2.42382789   -1.74320996   -1.64033198
 H         -0.46790901   -3.10442209    1.12034905
 H          2.10926509   -2.62411094    0.44141799
 O          1.54903901    1.25726104    0.47275200
 H          1.89935195    0.21428300   -1.25670099
 C          1.96970403    2.49088192   -0.11724900
 H          1.13520002    2.99133801   -0.61403298
 H          2.77173591    2.30848289   -0.83951700
 H          2.34114790    3.11573911    0.69389403
