27
wb97x-d4 ma-def2-tzvp(-f) cpcm(dmso) E: -727.019635715889, G: -726.82940838
 C         -1.18755805    0.43530601   -0.54748601
 C         -1.42238700   -1.03668404   -0.17274000
 O          0.08614500    0.63664699   -1.16676795
 C         -1.40570402    1.38802695    0.63017499
 H         -1.91132903    0.69518697   -1.32383394
 C          1.22166002    0.24796100   -0.41835800
 C          0.98776901   -1.03174496    0.39020601
 C         -0.12886301   -1.83051598   -0.25783801
 H          0.69918400   -0.77111799    1.41423702
 O          2.15641189   -1.84298897    0.40890399
 O         -0.34112400   -3.06981492    0.40583500
 H          0.11860200   -2.00622892   -1.31217003
 O         -2.41799593   -1.57382905   -1.04264998
 H         -1.77902102   -1.09073806    0.86210001
 H         -0.79451299    1.10583103    1.48784399
 O         -2.76080894    1.33624804    1.06788599
 H         -1.12487102    2.40087390    0.32499599
 H         -3.31622601    1.71172404    0.37424800
 H         -2.58865190   -2.48244810   -0.76470703
 H          0.50024301   -3.54339910    0.40523100
 H          2.74791503   -1.51542795    1.09576905
 O          1.65230405    1.23997605    0.47486600
 H          1.99631298    0.06444900   -1.17139399
 C          2.15261698    2.40639496   -0.17584901
 H          2.54882407    3.05806494    0.60236001
 H          1.35727096    2.92673707   -0.71585202
 H          2.95379806    2.14150906   -0.87501103
