27
wb97x-d4 ma-def2-tzvp(-f) cpcm(dmso) E: -727.019716594564, G: -726.8292246899999
 C         -1.18110001    0.20783500   -0.71676302
 C         -1.05963504   -0.79251301    0.42723799
 O          0.04949800    0.92952901   -0.89876199
 C         -2.25885296    1.25341702   -0.49013999
 H         -1.41970098   -0.33219099   -1.64038205
 C          1.24827194    0.26258600   -0.56772000
 C          1.14166903   -1.24434996   -0.76794702
 C          0.03707300   -1.82085705    0.12948900
 H          2.09498501   -1.70067894   -0.48651201
 O          0.81208700   -1.55201805   -2.11712003
 O          0.55713397   -2.37263298    1.33563602
 H         -0.41642100   -2.65322495   -0.41275999
 O         -2.32909799   -1.41796696    0.58993500
 H         -0.79452902   -0.24722999    1.33743894
 H         -2.27915597    1.92493403   -1.35610998
 O         -2.06590891    1.99240696    0.71149999
 H         -3.22776699    0.76088297   -0.40991101
 H         -1.21651101    2.44375706    0.63772100
 H         -2.27751493   -1.98929799    1.36532497
 H          0.97973901   -1.65305698    1.82320499
 H          1.51979303   -1.22433197   -2.68538189
 O          1.60848200    0.44234699    0.78074598
 H          2.01446891    0.70265299   -1.21712303
 C          2.02993989    1.76905203    1.08869898
 H          2.86086893    2.06557107    0.43908599
 H          2.36279702    1.76326704    2.12611008
 H          1.20938694    2.48211193    0.97450298
