27
wb97x-d4 ma-def2-tzvp(-f) cpcm(dmso) E: -727.020274084141, G: -726.82872145
 C         -1.17121303    0.37465701   -0.17120799
 C         -1.27760994   -1.16135895   -0.16469200
 O          0.07819400    0.80424201    0.38250601
 C         -2.26607704    1.03164005    0.64724398
 H         -1.23206496    0.72218901   -1.20938098
 C          1.16576195    0.17710701   -0.29466599
 C          1.22893596   -1.30534399    0.10139400
 C         -0.13080300   -1.76337600    0.65422702
 H          1.97057998   -1.41769004    0.89470500
 O          1.67078805   -2.10761809   -0.98477501
 O         -0.27125099   -1.44056201    2.03340197
 H         -0.17659700   -2.85229492    0.58298099
 O         -1.18898404   -1.61495304   -1.52149796
 H         -2.23159099   -1.47154701    0.27182299
 H         -3.23372698    0.74998200    0.22736201
 O         -2.18697000    2.45095897    0.60250098
 H         -2.22233009    0.67221701    1.68268204
 H         -1.31063604    2.70232201    0.91934001
 H         -1.52342606   -2.51984596   -1.55786395
 H         -0.10951000   -0.49187499    2.12486005
 H          0.97412997   -2.08179903   -1.65604103
 O          2.34686494    0.80034202    0.07630000
 H          1.00000894    0.27594700   -1.37920105
 C          2.48681808    2.11716008   -0.46425301
 H          1.77254605    2.80615902   -0.00727000
 H          2.33575702    2.10109711   -1.54884303
 H          3.50240302    2.44224310   -0.24163701
