27
wb97x-d4 ma-def2-tzvp(-f) cpcm(dmso) E: -727.019113679223, G: -726.82858776
 C         -1.14171195    0.17885900   -0.48646200
 C         -0.98870599   -1.02152395    0.45643300
 O          0.07560300    0.48928100   -1.18015301
 C         -1.72590196    1.37455499    0.24152200
 H         -1.83591497   -0.10925000   -1.28328800
 C          1.28653502    0.25842699   -0.49346000
 C          1.43275404   -1.18780804    0.00519000
 C          0.11090600   -1.92943394   -0.07386700
 H          1.73824501   -1.15562797    1.05613697
 O          2.44439697   -1.81550002   -0.77626699
 O          0.23904000   -3.11611199    0.69837499
 H         -0.10385000   -2.18283701   -1.12084901
 O         -2.22016597   -1.71789598    0.61001003
 H         -0.71959102   -0.69269401    1.46509099
 H         -2.62733507    1.03864706    0.76767898
 O         -2.04895210    2.38175511   -0.71570897
 H         -1.01183903    1.75042295    0.97920501
 H         -2.37357497    3.15299606   -0.23797201
 H         -2.54766297   -1.96372199   -0.26543200
 H         -0.62215197   -3.55257392    0.70422602
 H          2.55165505   -2.71549201   -0.44440001
 O          1.45127499    1.10849595    0.61175400
 H          2.06047511    0.45949501   -1.24154198
 C          1.60913301    2.47784495    0.24151599
 H          2.46562290    2.59265900   -0.43210900
 H          1.79134595    3.03364491    1.16081905
 H          0.71037197    2.86338592   -0.24644700
