27
wb97x-d4 ma-def2-tzvp(-f) cpcm(dmso) E: -727.019170463913, G: -726.8284089
 C         -1.16300702    0.41855600   -0.54533499
 C         -1.38940406   -1.04163301   -0.12159200
 O          0.12874800    0.61576003   -1.13002706
 C         -1.43633795    1.41198504    0.58604199
 H         -1.86234903    0.63602799   -1.35635805
 C          1.24456704    0.27093300   -0.33316299
 C          1.01080406   -1.00469601    0.48224699
 C         -0.08892700   -1.82613301   -0.17498000
 H          0.69866198   -0.73598200    1.49475896
 O          2.21021700   -1.75038898    0.64465499
 O         -0.30351701   -3.05472994    0.50788802
 H          0.17631400   -2.01935101   -1.22277796
 O         -2.37922812   -1.61336195   -0.97525901
 H         -1.74786305   -1.06477404    0.91404998
 H         -0.85121602    1.17178404    1.47410297
 O         -2.80503607    1.35174000    0.97883099
 H         -1.16164005    2.41769195    0.25304899
 H         -3.34314394    1.68394101    0.25032300
 H         -2.52612495   -2.52178407   -0.68306398
 H          0.53869700   -3.52612591    0.53087002
 H          2.57149792   -1.95171404   -0.22876900
 O          1.61420095    1.28772998    0.55734903
 H          2.05089903    0.10488900   -1.05935097
 C          2.10499692    2.45714092   -0.09548900
 H          2.44629192    3.13583493    0.68555403
 H          1.31792796    2.94133306   -0.67950797
 H          2.94397211    2.20532799   -0.75404799
