27
wb97x-d4 ma-def2-tzvp(-f) cpcm(dmso) E: -727.019338105063, G: -726.82835082
 C         -1.15112102    0.43217400   -0.52465600
 C         -1.32911897   -1.05747199   -0.18926300
 O          0.10189300    0.69003600   -1.16537595
 C         -1.37618995    1.34234703    0.68534797
 H         -1.89879000    0.69028699   -1.27851701
 C          1.26548505    0.32580301   -0.44974700
 C          1.10157704   -0.99517798    0.30130401
 C         -0.01174200   -1.80604303   -0.34548599
 H          0.83281898   -0.78397900    1.34488106
 O          2.35078096   -1.66931701    0.25301999
 O         -0.08728800   -3.12110591    0.19930799
 H          0.20687000   -1.94147801   -1.40765595
 O         -2.33713698   -1.59913301   -1.03993797
 H         -1.65127301   -1.14827001    0.85624897
 H         -0.74457902    1.05084097    1.52482104
 O         -2.72285509    1.23774099    1.14012599
 H         -1.12853503    2.37171292    0.40829200
 H         -3.29858804    1.62069905    0.46734801
 H         -2.44172812   -2.53143811   -0.81127602
 H         -0.35761499   -3.05457902    1.12525201
 H          2.21212196   -2.55170798    0.62072998
 O          1.66190302    1.30069602    0.47632501
 H          2.03577209    0.20998099   -1.22050595
 C          2.10253501    2.51145911   -0.13512300
 H          2.90688801    2.30896211   -0.85143501
 H          2.47867107    3.15059710    0.66313201
 H          1.27924395    3.01636696   -0.64715898
