27
wb97x-d4 ma-def2-tzvp(-f) cpcm(dmso) E: -727.019177760858, G: -726.82834744
 C         -1.17782795    0.44502199   -0.49279901
 C         -1.41179097   -1.02250504   -0.10180300
 O          0.09298100    0.63835400   -1.12261403
 C         -1.38716602    1.40974998    0.67681700
 H         -1.90484202    0.69870400   -1.26810706
 C          1.23323095    0.26074699   -0.37632599
 C          1.00864697   -1.02405798    0.42707700
 C         -0.12273000   -1.82102597   -0.20631400
 H          0.73550999   -0.76665199    1.45362496
 O          2.20340395   -1.78726006    0.53677601
 O         -0.33035699   -3.05820203    0.46335700
 H          0.10634300   -2.00034094   -1.26512599
 O         -2.42847204   -1.56127596   -0.94620299
 H         -1.74760795   -1.06699395    0.94051403
 H         -0.77057099    1.13473904    1.53291798
 O         -2.73925710    1.36336899    1.12377095
 H         -1.10687900    2.41931105    0.36046001
 H         -3.29871607    1.73214602    0.42973900
 H         -2.59923100   -2.46583390   -0.65528202
 H          0.50917798   -3.53497291    0.45940900
 H          2.53458595   -1.97252202   -0.35183001
 O          1.65654695    1.25460005    0.51604903
 H          2.00705099    0.09365200   -1.13700497
 C          2.13757396    2.42939305   -0.13435000
 H          1.33280599    2.94034410   -0.66923398
 H          2.93943501    2.17725897   -0.83747602
 H          2.52815390    3.08425212    0.64395601
