27
wb97x-d4 ma-def2-tzvp(-f) cpcm(dmso) E: -727.027867112139, G: -726.8374833
 C         -1.23926604    0.36160100   -0.19809800
 C         -1.31902099   -1.09405994    0.24876100
 O         -0.04867600    0.93998599    0.33504599
 C         -2.39732695    1.19578505    0.31221601
 H         -1.21227705    0.40599400   -1.29601204
 C          1.11799598    0.33195299   -0.19600800
 C          1.19099104   -1.12829304    0.24353100
 C         -0.07199800   -1.85158002   -0.20067599
 H          1.26026702   -1.14656103    1.34000802
 O          2.31022406   -1.77347696   -0.34244701
 O         -0.12223600   -3.20089102    0.24991500
 H         -0.07681400   -1.90908599   -1.29392505
 O         -2.48608899   -1.67601097   -0.31451899
 H         -1.37191498   -1.11984503    1.34686601
 H         -3.33526111    0.78443301   -0.06051900
 O         -2.31647301    2.53983402   -0.15078200
 H         -2.40917206    1.16199601    1.40869498
 H         -1.47392201    2.89833212    0.15428700
 H         -2.44278789   -2.62496400   -0.13944800
 H         -0.03859300   -3.20338392    1.21269500
 H          3.10107088   -1.30563200   -0.04659300
 O          2.23289108    0.98780501    0.30458701
 H          1.09124506    0.39601699   -1.29590297
 C          2.46076393    2.26509404   -0.29597601
 H          3.39521194    2.64350510    0.11637500
 H          1.64936495    2.95794892   -0.05965500
 H          2.55180001    2.16350102   -1.38242304
