27
wb97x-d4 ma-def2-tzvp(-f) cpcm(dmso) E: -727.019901220646, G: -726.82832343
 C         -1.17721295    0.29225200   -0.19550900
 C         -1.20465302   -1.25103605   -0.19331500
 O          0.03844200    0.78366101    0.38269401
 C         -2.31862497    0.89479101    0.60197902
 H         -1.23650599    0.64479601   -1.23361504
 C          1.17244303    0.18350700   -0.24108399
 C          1.28280902   -1.28408599    0.19798701
 C         -0.08264700   -1.79057801    0.69533902
 H          1.98612404   -1.34245396    1.03114796
 O          1.81716704   -2.08954597   -0.84277302
 O         -0.30450001   -1.44749606    2.05723596
 H         -0.08240100   -2.88074207    0.64449298
 O         -0.94997698   -1.79189003   -1.49335897
 H         -2.16997695   -1.60924602    0.17825200
 H         -3.26387811    0.56924999    0.16337900
 O         -2.30536103    2.31654811    0.55504698
 H         -2.27874589    0.53888202    1.63832200
 H         -1.45971894    2.61176801    0.91407901
 H         -1.61755502   -1.46465600   -2.10716605
 H         -0.17538400   -0.49307999    2.13970709
 H          1.13890898   -2.14491701   -1.53115499
 O          2.31395102    0.86497003    0.15010799
 H          1.03843701    0.24514300   -1.33243203
 C          2.42715406    2.16428804   -0.43598899
 H          3.40011311    2.55668902   -0.14287101
 H          1.63930202    2.82845306   -0.07282100
 H          2.37228799    2.09472895   -1.52768099
