27
wb97x-d4 ma-def2-tzvp(-f) cpcm(dmso) E: -727.01901692972, G: -726.82829835
 C         -1.21164894    0.20098300   -0.45943299
 C         -0.89245099   -0.77575701    0.66592699
 O         -0.03926100    0.92525798   -0.86993498
 C         -2.22405791    1.24892604   -0.03378800
 H         -1.59938705   -0.35172701   -1.32209504
 C          1.20849502    0.29122499   -0.71348202
 C          1.09980297   -1.21589005   -0.86734998
 C          0.17766801   -1.78512895    0.22887000
 H          2.09468889   -1.65401399   -0.74544299
 O          0.59538299   -1.45867002   -2.17373395
 O          0.91822898   -2.25460291    1.35219395
 H         -0.32936400   -2.65985298   -0.18591200
 O         -2.11022997   -1.41994500    1.02999306
 H         -0.50468200   -0.20684800    1.51790595
 H         -3.16277504    0.76515299    0.23400000
 O         -2.51399994    2.15694499   -1.09302604
 H         -1.83853805    1.78620195    0.84181499
 H         -1.67985594    2.56387496   -1.35755706
 H         -1.92573702   -1.99364996    1.78323102
 H          1.39922404   -1.49572003    1.70953703
 H          0.62735999   -2.40918112   -2.33347702
 O          1.75820804    0.49750400    0.56676298
 H          1.85808396    0.73562098   -1.47513294
 C          2.01735306    1.86846399    0.86111301
 H          1.08542597    2.43022299    0.96305197
 H          2.62945795    2.31937790    0.07204400
 H          2.56260610    1.89122999    1.80392003
