27
wb97x-d4 ma-def2-tzvp(-f) cpcm(dmso) E: -727.019858531205, G: -726.8282507499999
 C         -1.22088003    0.19108400   -0.16090000
 C         -1.33078897   -1.24759901    0.37481701
 O          0.00503000    0.77840102    0.28811499
 C         -2.34715509    1.07731402    0.32531101
 H         -1.22447002    0.16813201   -1.25797296
 C          1.12536800    0.21578300   -0.39411801
 C          1.07407498   -1.32706296   -0.36081201
 C          0.07301600   -1.79200804    0.69585103
 H          2.07332993   -1.70043898   -0.12275600
 O          0.61257899   -1.86161101   -1.60058796
 O          0.50318003   -1.40723801    1.99515700
 H          0.02704100   -2.88244891    0.69163698
 O         -2.04023695   -2.07925510   -0.53562099
 H         -1.90516198   -1.25913894    1.30481696
 H         -3.30083394    0.63117403    0.03577900
 O         -2.29869890    2.37646794   -0.25360700
 H         -2.30943489    1.13782001    1.42016995
 H         -1.44706702    2.76432991   -0.01720200
 H         -1.48862100   -2.16322994   -1.32631004
 H          0.50045902   -0.44072500    2.02555299
 H          1.23213005   -1.61989605   -2.29896498
 O          2.27930808    0.63968301    0.24950600
 H          1.10496998    0.57094300   -1.43645203
 C          2.51901197    2.04303694    0.11339200
 H          2.50269103    2.32864189   -0.94401199
 H          3.50771594    2.23318100    0.52910602
 H          1.77344298    2.62466002    0.66010499
