27
wb97x-d4 ma-def2-tzvp(-f) cpcm(dmso) E: -727.019883831285, G: -726.8281581
 C         -1.18130898    0.30041400   -0.15451200
 C         -1.21481204   -1.24202001   -0.19310400
 O          0.05290600    0.77241200    0.39955401
 C         -2.29552794    0.88481700    0.69344801
 H         -1.27091300    0.68194002   -1.18013406
 C          1.16640401    0.18562500   -0.27252600
 C          1.28314197   -1.29409897    0.12213400
 C         -0.06883500   -1.80869305    0.64684403
 H          2.01094198   -1.37807095    0.93175000
 O          1.78107595   -2.07265210   -0.95648402
 O         -0.24804500   -1.50032902    2.02323103
 H         -0.07503700   -2.89709401    0.56703800
 O         -1.00123894   -1.74895799   -1.51407802
 H         -2.16981196   -1.60713196    0.19802400
 H         -3.25491810    0.57785499    0.27240199
 O         -2.27421093    2.30726004    0.68972802
 H         -2.22878695    0.49764401    1.71711898
 H         -1.41483402    2.58584404    1.02905202
 H         -1.68158400   -1.39857900   -2.10045791
 H         -0.11220400   -0.54887998    2.12637401
 H          1.07998097   -2.10921097   -1.62291706
 O          2.32081604    0.85229999    0.10551700
 H          1.00160599    0.27819899   -1.35737395
 C          2.41904211    2.17020988   -0.44083199
 H          2.31235790    2.13900495   -1.53043306
 H          3.40840292    2.54456306   -0.18078800
 H          1.65539205    2.82763100   -0.01857500
