27
wb97x-d4 ma-def2-tzvp(-f) cpcm(dmso) E: -727.018621424778, G: -726.82791945
 C         -1.03611696    0.33568799   -0.80715299
 C         -1.03725505   -0.70855302    0.30238101
 O          0.23583101    0.99933499   -0.87240601
 C         -2.10505700    1.40073502   -0.62289500
 H         -1.22632003   -0.16034500   -1.76641405
 C          1.37289596    0.25444400   -0.50090301
 C          1.20453203   -1.23627806   -0.77173400
 C          0.01385900   -1.78769898    0.02801000
 H          2.11165810   -1.75335801   -0.44586900
 O          0.95421100   -1.47453499   -2.15153408
 O          0.42452499   -2.41212010    1.24110496
 H         -0.44854200   -2.57093501   -0.57644099
 O         -2.35163999   -1.25296903    0.38194901
 H         -0.78475702   -0.21051000    1.24336302
 H         -1.92357695    2.19756007   -1.34749699
 O         -2.09170389    2.00731111    0.66695303
 H         -3.08269095    0.95993203   -0.83444101
 H         -2.53678894    1.41266704    1.28133905
 H         -2.37719297   -1.85356998    1.13635099
 H          0.86007100   -1.73595297    1.77722299
 H          1.71602499   -1.16472900   -2.65632296
 O          1.65729594    0.35708001    0.87516701
 H          2.20096588    0.68081999   -1.08022702
 C          1.99328697    1.68009806    1.28732800
 H          2.82134604    2.06850100    0.68377399
 H          2.30122495    1.61813104    2.33064508
 H          1.13391304    2.34925008    1.19825006
