27
wb97x-d4 ma-def2-tzvp(-f) cpcm(dmso) E: -727.018761476828, G: -726.8278527599999
 C         -1.37238801    0.13725799   -0.75158101
 C         -1.04719996   -0.89288998    0.33242401
 O         -0.18342400    0.66946298   -1.37646794
 C         -2.26983404    1.27103400   -0.27908900
 H         -1.90496004   -0.39272401   -1.54726005
 C          1.01564705    0.55836201   -0.66843402
 C          1.36785197   -0.89979202   -0.31035900
 C          0.11235700   -1.74971402   -0.14774901
 H          1.90564597   -0.89639002    0.63918900
 O          2.26767206   -1.46114194   -1.25926399
 O          0.39482599   -2.80641699    0.75856900
 H         -0.15954401   -2.16413307   -1.12938404
 O         -2.17266512   -1.74646199    0.52890098
 H         -0.78133398   -0.40986201    1.27546096
 H         -2.40398002    1.96719396   -1.11591494
 O         -1.78988397    1.95274305    0.87242502
 H         -3.24849796    0.85701901   -0.02237100
 H         -0.82891601    2.05460596    0.77540100
 H         -2.67924809   -1.42372894    1.28198898
 H         -0.44325501   -3.25521111    0.93220598
 H          1.80409503   -1.55762804   -2.10092711
 O          0.92884099    1.36443901    0.49723801
 H          1.79040694    0.95714098   -1.33092904
 C          2.18828392    1.86442196    0.94330698
 H          2.66141009    2.46193790    0.15712699
 H          2.85924506    1.04996097    1.23360896
 H          1.98884594    2.49051499    1.81188500
