27
wb97x-d4 ma-def2-tzvp(-f) cpcm(dmso) E: -727.018871816754, G: -726.82782905
 C         -1.01542306    0.39880499   -0.71263403
 C         -0.99744701   -0.63949502    0.40474600
 O          0.27182800    1.01356101   -0.85723001
 C         -1.99343598    1.53599703   -0.42911199
 H         -1.29386902   -0.08489200   -1.65555203
 C          1.40241301    0.24422701   -0.51153201
 C          1.18193805   -1.24531305   -0.74787998
 C          0.01938900   -1.74891198    0.12072400
 H          2.09011889   -1.78195906   -0.45848200
 O          0.85447198   -1.49871802   -2.10790992
 O          0.47412500   -2.34066510    1.33364403
 H         -0.48390600   -2.54167509   -0.43625900
 O         -2.32289195   -1.16106403    0.52985698
 H         -0.71578997   -0.13218500    1.33290303
 H         -1.83881795    1.90002501    0.59487301
 O         -3.34741497    1.15208602   -0.63748997
 H         -1.78258002    2.35513902   -1.11945701
 H         -3.48246002    0.34486499   -0.12002300
 H         -2.39021111   -1.61678004    1.37710297
 H          0.95582098   -1.65879905    1.82098806
 H          1.59699404   -1.21911895   -2.65716910
 O          1.73756695    0.36496699    0.85033798
 H          2.21790600    0.63799000   -1.13000500
 C          2.13467598    1.68283105    1.22379804
 H          2.47794390    1.62906301    2.25640297
 H          1.29599798    2.37993503    1.15209603
 H          2.95305705    2.03008103    0.58326203
