27
wb97x-d4 ma-def2-tzvp(-f) cpcm(dmso) E: -727.017974804283, G: -726.82749114
 C         -1.22232902    0.45539001   -0.53560400
 C         -1.49123394   -1.02158403   -0.17422999
 O          0.04256100    0.61965197   -1.18503106
 C         -1.39150798    1.41285098    0.64761001
 H         -1.95676196    0.74861997   -1.28835595
 C          1.18328798    0.22211100   -0.45049000
 C          0.92515898   -1.01450503    0.41218001
 C         -0.20080800   -1.83037901   -0.19995700
 H          0.64140803   -0.70459002    1.42345798
 O          2.08001089   -1.84444201    0.46917701
 O         -0.40924099   -3.03501201    0.52287400
 H          0.05784900   -2.05793190   -1.24359000
 O         -2.49123096   -1.61187994   -0.99976802
 H         -1.89412105   -1.08204603    0.84035403
 H         -0.78147799    1.11468697    1.50372303
 O         -2.76694608    1.50060999    1.01710796
 H         -1.07742500    2.40998507    0.33435699
 H         -2.97727203    0.77110600    1.61012697
 H         -2.17796397   -1.59722102   -1.91316402
 H          0.45454800   -3.45827293    0.61372799
 H          2.66674805   -1.51107204    1.15721905
 O          1.66615295    1.23196197    0.39469501
 H          1.93475401   -0.01579500   -1.21176505
 C          2.19080496    2.35568595   -0.31019300
 H          2.96053100    2.03678107   -1.02195203
 H          2.63438106    3.01749396    0.43315399
 H          1.40012205    2.88779712   -0.84566402
