27
wb97x-d4 ma-def2-tzvp(-f) cpcm(dmso) E: -727.018419979667, G: -726.82725646
 C         -0.97111499    0.39122701   -0.76301998
 C         -1.03966606   -0.76444501    0.23660900
 O          0.36710200    0.64444000   -1.21412599
 C         -1.60101295    1.67180896   -0.21955299
 H         -1.53260398    0.08293400   -1.65100098
 C          1.40880406    0.21037200   -0.36376500
 C          1.36670601   -1.30925703   -0.11476800
 C         -0.06262000   -1.84917104   -0.18878500
 H          1.76060605   -1.48298895    0.88905501
 O          2.23966908   -2.00351095   -0.99588001
 O         -0.23449300   -3.04198098    0.56771302
 H         -0.28926799   -2.12624407   -1.22341096
 O         -2.38745189   -1.22943497    0.22281700
 H         -0.78302997   -0.41645601    1.24429297
 H         -1.16923499    1.91439199    0.75799000
 O         -3.02011800    1.55737495   -0.13188300
 H         -1.38863301    2.49258208   -0.90747499
 H         -3.21872401    0.71122903    0.29325700
 H         -2.44470811   -1.97435403    0.83453900
 H          0.06548700   -2.87734199    1.47113895
 H          1.90092397   -1.91823995   -1.89633799
 O          1.38747096    0.85924000    0.88017499
 H          2.32671595    0.45865199   -0.90631998
 C          1.75722897    2.23597693    0.79900301
 H          1.72079396    2.63320398    1.81271505
 H          1.06723499    2.79742408    0.16424300
 H          2.77393603    2.33256888    0.40277800
