27
wb97x-d4 ma-def2-tzvp(-f) cpcm(dmso) E: -727.019348687469, G: -726.82713729
 C         -1.08038604    0.44137901   -0.37397301
 C         -1.31383705   -1.07788205   -0.26498899
 O          0.09635000    0.82314998    0.34264600
 C         -2.23318410    1.27255905    0.15767500
 H         -0.94680202    0.68625897   -1.43603897
 C          1.25561404    0.22716200   -0.23942000
 C          1.19715905   -1.31162095   -0.13384099
 C         -0.14445101   -1.75296104    0.46260899
 H          1.99633098   -1.63680100    0.53402197
 O          1.44147599   -1.92574894   -1.39406002
 O         -0.19351600   -1.49550998    1.86073303
 H         -0.23466501   -2.83543992    0.34475499
 O         -1.42317498   -1.58092403   -1.60402906
 H         -2.23372602   -1.28429699    0.28806400
 H         -2.02191496    2.33314395   -0.01253000
 O         -2.50155091    1.02915096    1.53492904
 H         -3.13701200    1.00517595   -0.39431000
 H         -1.79112399    1.42731297    2.05125403
 H         -1.78814495   -2.47370505   -1.56144798
 H         -0.11962000   -0.53828502    1.97576702
 H          0.62430203   -1.85650098   -1.91044998
 O          2.37332606    0.68696600    0.44045299
 H          1.29363298    0.52573502   -1.29879200
 C          2.65648198    2.06771398    0.20010400
 H          1.88574803    2.70849299    0.63439000
 H          2.72726798    2.25833797   -0.87611800
 H          3.61541891    2.27713895    0.67259502
