27
wb97x-d4 ma-def2-tzvp(-f) cpcm(dmso) E: -727.017508200375, G: -726.82713627
 C         -0.95251298    0.27474800   -0.89107698
 C         -1.00708997   -0.72262299    0.26043400
 O          0.35090601    0.87354302   -1.01484394
 C         -1.97140598    1.39734900   -0.76543301
 H         -1.18485796   -0.25842401   -1.82392800
 C          1.44368505    0.20318399   -0.41788301
 C          1.32612598   -1.30313098   -0.59674299
 C          0.03329300   -1.82656300    0.06624700
 H          2.17775202   -1.78523302   -0.11532900
 O          1.40565097   -1.63983095   -1.97693503
 O          0.28885701   -2.49609709    1.29913902
 H         -0.38956600   -2.58088398   -0.60086602
 O         -2.33108091   -1.24782097    0.29808301
 H         -0.79057997   -0.19719000    1.19441700
 H         -1.76797402    2.12966108   -1.54974604
 O         -1.90216601    2.09418106    0.47481200
 H         -2.97194791    0.98815697   -0.92799902
 H         -2.37320805    1.57859695    1.13882697
 H         -2.39247489   -1.82941902    1.06528103
 H          0.64931399   -1.84701896    1.91756499
 H          0.84385800   -1.03993797   -2.48245406
 O          1.54483104    0.43802801    0.96189201
 H          2.32648897    0.59709603   -0.93273997
 C          1.84924901    1.79455900    1.28342497
 H          2.01105595    1.83532798    2.36001301
 H          1.02387702    2.45674109    1.01183498
 H          2.75991797    2.11299801    0.76400501
