27
wb97x-d4 ma-def2-tzvp(-f) cpcm(dmso) E: -727.02776529322, G: -726.8374006399999
 C         -1.19581604    0.50706100   -0.32135099
 C         -1.36802101   -0.96627098    0.03756300
 O         -0.00160300    0.99569601    0.28766400
 C         -2.33277607    1.38703597    0.16596900
 H         -1.12766504    0.60459697   -1.41438794
 C          1.15828705    0.33846501   -0.19587700
 C          1.12300706   -1.14294899    0.17070401
 C         -0.14330700   -1.76718998   -0.39545101
 H          1.11466002   -1.21940994    1.26678503
 O          2.24692512   -1.81761706   -0.37170699
 O         -0.29139400   -3.13905597   -0.04186400
 H         -0.08343600   -1.75452101   -1.48859298
 O         -2.53762007   -1.44527996   -0.61222500
 H         -1.47720802   -1.05052900    1.12663698
 H         -2.14027905    2.41588497   -0.15781000
 O         -2.50570011    1.32906103    1.57820797
 H         -3.26711512    1.04946303   -0.28315300
 H         -1.68994296    1.64430904    1.98571801
 H         -2.55456996   -2.40381789   -0.49506500
 H         -0.26761201   -3.21011901    0.92163903
 H          3.03729296   -1.39863598   -0.00878200
 O          2.27347994    0.90071601    0.40812799
 H          1.20933104    0.45506400   -1.29074299
 C          2.62795806    2.18004990   -0.12260200
 H          2.80282903    2.10875702   -1.20112205
 H          3.54646611    2.48381209    0.37800899
 H          1.84383202    2.91542101    0.07370800
