27
wb97x-d4 ma-def2-tzvp(-f) cpcm(dmso) E: -727.018858328735, G: -726.82709603
 C         -1.17962396    0.14581300   -0.58596200
 C         -1.21303904   -1.32918501   -0.18378700
 O          0.06170600    0.49978101   -1.20704305
 C         -1.59277403    1.08982003    0.53476298
 H         -1.91640306    0.27956700   -1.38535202
 C          1.25732899    0.16864100   -0.52749300
 C          1.30194402   -1.29528105   -0.08073800
 C          0.01413900   -1.74780798    0.62148499
 H          2.14420891   -1.40838802    0.60623598
 O          1.57017803   -2.12867093   -1.20273304
 O         -0.13013500   -1.19137001    1.91912794
 H          0.03151600   -2.84252000    0.67053699
 O         -1.20880306   -2.16980505   -1.34336698
 H         -2.11155105   -1.51552796    0.41268301
 H         -2.50665498    0.69383001    0.99309403
 O         -1.84788001    2.36861992   -0.05247100
 H         -0.81893498    1.16029894    1.29693604
 H         -1.98127997    3.00035691    0.66242599
 H         -1.91723704   -1.88961506   -1.93488598
 H          0.65865999   -1.40452194    2.43104100
 H          0.73399001   -2.23579001   -1.68261099
 O          1.51133597    0.98212200    0.58609098
 H          2.03644109    0.32482901   -1.28277397
 C          1.72841406    2.34781289    0.24008000
 H          2.50548792    2.42912102   -0.52915800
 H          2.06054497    2.85509992    1.14576900
 H          0.80841899    2.81276989   -0.12189200
