27
wb97x-d4 ma-def2-tzvp(-f) cpcm(dmso) E: -727.017255690859, G: -726.82706586
 C         -1.13581598    0.36390999   -0.72482502
 C         -1.12804794   -0.77062398    0.29373401
 O          0.18346100    0.68509102   -1.19397402
 C         -1.89028394    1.60622299   -0.26699099
 H         -1.67360103   -0.01207500   -1.60302603
 C          1.29724896    0.22192000   -0.46078700
 C          1.25440300   -1.28859305   -0.15202500
 C         -0.16399699   -1.83560300   -0.19503300
 H          1.64575303   -1.42785895    0.85949999
 O          2.02355409   -2.03899407   -1.08677495
 O         -0.32085600   -2.98127890    0.63704503
 H         -0.41656199   -2.09151912   -1.23108900
 O         -2.45810008   -1.26530099    0.37504300
 H         -0.79984200   -0.41689500    1.27834296
 H         -1.73606098    2.38998294   -1.01203299
 O         -1.47249496    2.14330101    0.98282498
 H         -2.95813704    1.36403203   -0.24400800
 H         -1.84276700    1.60112906    1.68770099
 H         -2.41288590   -2.10553598    0.84971601
 H          0.07237800   -3.73921704    0.18988800
 H          2.95874095   -1.89370894   -0.90025800
 O          1.46374702    0.89626998    0.75812203
 H          2.14862609    0.43074900   -1.11883497
 C          1.77635801    2.27720308    0.58970100
 H          0.95244902    2.81271100    0.11512900
 H          2.68575406    2.38842607   -0.01240300
 H          1.94697797    2.68625402    1.58531499
