27
wb97x-d4 ma-def2-tzvp(-f) cpcm(dmso) E: -727.018808048171, G: -726.8270331599999
 C         -1.19731402    0.15583500   -0.40876999
 C         -0.86296600   -0.81700402    0.72161001
 O         -0.03359700    0.67568201   -1.07773900
 C         -2.00504494    1.34091198    0.09474200
 H         -1.77935600   -0.38268399   -1.16784203
 C          1.22512603    0.23817100   -0.62086898
 C          1.30721700   -1.28521001   -0.52136201
 C          0.11613400   -1.87836802    0.23812500
 H          2.22614098   -1.53920901    0.01396200
 O          1.31098604   -1.85904205   -1.82540405
 O          0.60701901   -2.65387607    1.32710695
 H         -0.42242101   -2.52560496   -0.46673399
 O         -2.04879498   -1.42698705    1.22503495
 H         -0.43018600   -0.28042200    1.56603301
 H         -2.95272803    0.99245399    0.50631797
 O         -2.31541800    2.24641299   -0.95942903
 H         -1.44280195    1.84971094    0.88737798
 H         -1.47648704    2.51914692   -1.35189497
 H         -2.47159505   -1.91548395    0.50582600
 H         -0.15986800   -3.00468397    1.79786599
 H          2.12480307   -1.59368706   -2.27071309
 O          1.56067300    0.76147300    0.63705099
 H          1.93083298    0.60208100   -1.37738395
 C          1.75457096    2.17459011    0.62458199
 H          2.10579205    2.45458007    1.61714995
 H          0.82139599    2.70078397    0.40721899
 H          2.50788689    2.45042992   -0.12186600
