27
wb97x-d4 ma-def2-tzvp(-f) cpcm(dmso) E: -727.0188444725, G: -726.8270305
 C         -1.04523098    0.34193799   -0.74378002
 C         -1.24143302   -1.12153196   -0.35266700
 O          0.27534401    0.58894801   -1.24087000
 C         -1.45247197    1.35063696    0.33803901
 H         -1.69524896    0.53672302   -1.60302401
 C          1.35672295    0.17827900   -0.42730299
 C          1.24737406   -1.29080904   -0.01074200
 C         -0.13331699   -1.65663195    0.55147898
 H          2.00960112   -1.48282504    0.74808002
 O          1.55615103   -2.11993289   -1.12628400
 O         -0.35499999   -1.13800895    1.85492897
 H         -0.20557600   -2.75011301    0.55928802
 O         -1.21348906   -1.96164203   -1.51443899
 H         -2.20121789   -1.22920299    0.16131900
 H         -0.92619002    1.17267799    1.27300799
 O         -2.86749411    1.32499099    0.53727198
 H         -1.19657004    2.34746599   -0.02694500
 H         -3.06537509    0.70149499    1.24395895
 H         -1.83082497   -1.60933602   -2.16667008
 H          0.33782399   -1.47477496    2.43496990
 H          0.76088703   -2.15936399   -1.68034697
 O          1.50707805    0.96791399    0.72101998
 H          2.23355794    0.29091600   -1.07481098
 C          1.94868100    2.29191589    0.43092701
 H          2.04463696    2.81023312    1.38458502
 H          1.22953796    2.82208610   -0.19882600
 H          2.92204189    2.26795197   -0.07216500
