27
wb97x-d4 ma-def2-tzvp(-f) cpcm(dmso) E: -727.016636690259, G: -726.82686858
 C         -1.49874401    0.15365700   -0.48041001
 C         -1.13036799   -0.89202899    0.57136101
 O         -0.37979200    0.52838898   -1.30355203
 C         -2.15070891    1.38329303    0.13425900
 H         -2.20211697   -0.31261399   -1.17541897
 C          0.88825101    0.50514102   -0.70860398
 C          1.24707997   -0.88608098   -0.13248600
 C          0.00240700   -1.74863601    0.03740400
 H          1.69585001   -0.74320501    0.85201198
 O          2.23686099   -1.55191195   -0.90916902
 O          0.21548299   -2.80923200    0.96226001
 H         -0.29280099   -2.15689206   -0.93796098
 O         -2.30084109   -1.65922296    0.82311600
 H         -0.79920101   -0.40767401    1.49973905
 H         -3.07177091    1.07810497    0.63565898
 O         -2.51401997    2.33495998   -0.86105102
 H         -1.47937405    1.83213401    0.87164003
 H         -1.70858002    2.55414104   -1.34632802
 H         -2.04748106   -2.37033701    1.42530501
 H          0.79449701   -3.46059799    0.55006701
 H          1.86662698   -1.74728894   -1.77968001
 O          0.94063997    1.50825405    0.28589100
 H          1.59254205    0.74658501   -1.51282597
 C          2.26975203    1.93779695    0.56465799
 H          2.88070512    1.12661505    0.97509801
 H          2.19681597    2.73574400    1.30282199
 H          2.74828911    2.32090807   -0.34380499
