27
wb97x-d4 ma-def2-tzvp(-f) cpcm(dmso) E: -727.016945572544, G: -726.82683922
 C         -1.47415602    0.09287600   -0.50713700
 C         -1.01234603   -0.94183099    0.51833397
 O         -0.39743099    0.56098098   -1.34124100
 C         -2.20199490    1.26232898    0.13598400
 H         -2.15511894   -0.41322699   -1.19744098
 C          0.88377303    0.57466298   -0.77809697
 C          1.33040202   -0.81580597   -0.28281000
 C          0.13692100   -1.73386395   -0.08513500
 H          1.82533503   -0.69622397    0.68681300
 O          2.25069809   -1.34001899   -1.23609900
 O          0.55063701   -2.80384302    0.75534999
 H         -0.17893399   -2.12443399   -1.06061697
 O         -2.11278105   -1.80521905    0.80116600
 H         -0.67510700   -0.45895100    1.44151103
 H         -3.07067704    0.88150603    0.67738301
 O         -2.69120002    2.17758989   -0.84045601
 H         -1.53875196    1.76874900    0.84294301
 H         -1.92816699    2.48530507   -1.34556401
 H         -2.21022701   -1.87706196    1.75615895
 H         -0.19721401   -3.40739298    0.84638000
 H          2.52589607   -2.21290803   -0.92951298
 O          0.90720302    1.52735806    0.26603299
 H          1.55574000    0.89109701   -1.58322096
 C          2.21893907    2.00141501    0.55252802
 H          2.11933708    2.75591803    1.33207405
 H          2.66837001    2.45195794   -0.33967400
 H          2.87085199    1.19903696    0.91434902
