27
wb97x-d4 ma-def2-tzvp(-f) cpcm(dmso) E: -727.018845730641, G: -726.82677651
 C         -1.58722603    0.26841199   -0.53362799
 C         -1.35429001   -1.07653999    0.18020999
 O         -0.46945700    0.66117400   -1.35383999
 C         -2.03906298    1.37283003    0.41407901
 H         -2.39066410    0.12709200   -1.26095903
 C          0.81880701    0.59320301   -0.82500702
 C          1.07008505   -0.67702103    0.00626000
 C         -0.03087300   -1.68964398   -0.24835600
 H          1.06103504   -0.42115301    1.07322204
 O          2.34814000   -1.17908299   -0.36407599
 O          0.27591699   -2.84946108    0.51586801
 H         -0.06204900   -1.94053602   -1.31681502
 O         -2.43766499   -1.98072600   -0.01990900
 H         -1.31263995   -0.91958201    1.25995100
 H         -2.16396499    2.29844093   -0.15972801
 O         -1.17868495    1.57730496    1.52656496
 H         -3.01409101    1.08501101    0.81630802
 H         -0.31108400    1.83647597    1.17053497
 H         -2.54528594   -2.12569404   -0.96908402
 H         -0.44743600   -3.47756100    0.39823401
 H          2.49649906   -1.98833299    0.14143699
 O          1.05058503    1.78365099   -0.08260900
 H          1.49715400    0.58119500   -1.68519104
 C          2.42174792    1.98514104    0.26191300
 H          3.04755497    1.95145094   -0.63610798
 H          2.77021098    1.23156297    0.97348201
 H          2.48673892    2.97239089    0.71724802
