27
wb97x-d4 ma-def2-tzvp(-f) cpcm(dmso) E: -727.01863985417, G: -726.82668638
 C         -1.58663797    0.32259899   -0.65218902
 C         -1.48131204   -1.04131103    0.04591200
 O         -0.39994201    0.65736598   -1.39670396
 C         -2.03205609    1.44013298    0.28293601
 H         -2.35088992    0.23051099   -1.42665899
 C          0.84109598    0.54838401   -0.76944000
 C          0.96346200   -0.71004999    0.11454600
 C         -0.14268000   -1.69407201   -0.23819201
 H          0.86309600   -0.43119001    1.16657805
 O          2.24880290   -1.30989802   -0.00011600
 O         -0.06194700   -2.86896992    0.55863500
 H         -0.07840200   -1.95544195   -1.30285895
 O         -2.56979299   -1.84325397   -0.40867099
 H         -1.55625403   -0.90825599    1.13056302
 H         -2.06775689    2.37780690   -0.28358901
 O         -1.23309505    1.58355200    1.44987702
 H         -3.04525995    1.20573604    0.62019801
 H         -0.34228000    1.83487797    1.15110695
 H         -2.56905293   -2.65553808    0.11266800
 H          0.82541698   -3.23362088    0.45050699
 H          2.40495992   -1.53003502   -0.92811799
 O          1.07498395    1.74945605   -0.04569500
 H          1.57815397    0.48582301   -1.57943904
 C          2.42372489    1.89628994    0.40093699
 H          3.11452603    1.80727100   -0.44411200
 H          2.67874193    1.14915001    1.15716600
 H          2.50039291    2.89268208    0.83415198
