27
wb97x-d4 ma-def2-tzvp(-f) cpcm(dmso) E: -727.027167447452, G: -726.83705777
 C         -1.19895995    0.31180400   -0.14255001
 C         -1.21300399   -1.10748303    0.42730501
 O         -0.03285700    0.98594803    0.32708901
 C         -2.38995290    1.13521695    0.30659801
 H         -1.17952502    0.26708901   -1.24221003
 C          1.17136598    0.40704700   -0.15829800
 C          1.30716503   -0.99985099    0.40731201
 C          0.07810700   -1.81832397    0.03679600
 H          1.37236702   -0.91993999    1.50019598
 O          2.48415589   -1.59011304   -0.12271600
 O          0.21115100   -3.07791901    0.68540502
 H          0.07709600   -1.96116698   -1.05376601
 O         -2.35022402   -1.84958398    0.00094500
 H         -1.28024304   -1.05558395    1.51779699
 H         -3.31067705    0.65714097   -0.02790100
 O         -2.36787796    2.44161892   -0.25917301
 H         -2.39895797    1.18710399    1.40227199
 H         -1.53667295    2.85441399    0.00630700
 H         -2.34352303   -1.89381504   -0.96460402
 H         -0.49483499   -3.65320802    0.36698401
 H          2.47790289   -2.51984406    0.13789900
 O          2.23412490    1.17982996    0.27992401
 H          1.13838100    0.37745899   -1.25960696
 C          2.35287595    2.42291594   -0.41498101
 H          1.48634100    3.06221008   -0.22829200
 H          2.45434499    2.24883890   -1.49158204
 H          3.25193095    2.90819502   -0.03714800
