27
wb97x-d4 ma-def2-tzvp(-f) cpcm(dmso) E: -727.018634626854, G: -726.82659483
 C         -1.58100104    0.26992601   -0.69250798
 C         -1.46577001   -1.06004703    0.06673200
 O         -0.38584900    0.59372598   -1.42838001
 C         -2.06307507    1.42035103    0.18244700
 H         -2.32810593    0.12980799   -1.47649097
 C          0.84609199    0.53020900   -0.77709800
 C          0.97249103   -0.68738300    0.16170900
 C         -0.11263600   -1.70262504   -0.16559599
 H          0.84940398   -0.36584201    1.19911504
 O          2.26822400   -1.27144396    0.09391100
 O         -0.02925600   -2.83926392    0.68469101
 H         -0.02680900   -2.01009893   -1.21633399
 O         -2.53164911   -1.90055394   -0.37134901
 H         -1.56248701   -0.88109702    1.14308906
 H         -2.11089206    2.32880402   -0.42900699
 O         -1.28327799    1.63654995    1.35094798
 H         -3.07564998    1.17980099    0.51735198
 H         -0.39136100    1.88522100    1.05295002
 H         -2.51021600   -2.70015001    0.16896200
 H          0.86130100   -3.20228291    0.60035700
 H          2.44483399   -1.52667296   -0.82136101
 O          1.05096400    1.76385605   -0.10092500
 H          1.59749401    0.44472501   -1.57168400
 C          2.38847303    1.94475901    0.36736000
 H          2.44553900    2.95900607    0.76028299
 H          3.09820604    1.82821405   -0.45840400
 H          2.63501310    1.23250496    1.15923095
