27
wb97x-d4 ma-def2-tzvp(-f) cpcm(dmso) E: -727.018695874824, G: -726.82657642
 C         -1.20452905    0.39462399   -0.55194199
 C         -1.36854899   -1.08594406   -0.21409000
 O          0.04059600    0.65183198   -1.21767199
 C         -1.43958902    1.34588897    0.62609798
 H         -1.96006095    0.62827897   -1.30801404
 C          1.21626604    0.20275800   -0.57656503
 C          1.14658499   -1.27562296   -0.19764601
 C         -0.15446500   -1.66504395    0.51704800
 H          2.00581598   -1.50409806    0.44093001
 O          1.23730898   -1.98842096   -1.43591499
 O         -0.18960100   -1.21220100    1.86327899
 H         -0.23751500   -2.75849104    0.48415199
 O         -1.62797403   -1.84145105   -1.39697802
 H         -2.24599791   -1.19655502    0.42501000
 H         -0.83109498    1.07855594    1.48481798
 O         -2.80033398    1.28538203    1.05460405
 H         -1.17643297    2.35955501    0.30728301
 H         -3.35375500    1.65085602    0.35437000
 H         -0.78700101   -1.92937100   -1.86933601
 H          0.57224202   -1.57987499    2.32676697
 H          1.38235998   -2.92144394   -1.23629797
 O          1.53489494    0.94280601    0.56865400
 H          1.99816096    0.33031899   -1.33356500
 C          1.97232199    2.26673198    0.26822099
 H          1.18564200    2.84283590   -0.22576299
 H          2.85950708    2.23890710   -0.37444600
 H          2.22519708    2.73918796    1.21699595
