27
wb97x-d4 ma-def2-tzvp(-f) cpcm(dmso) E: -727.017796679341, G: -726.82638455
 C         -0.98019397    0.27550301   -0.63213301
 C         -0.89238298   -0.79483902    0.46096900
 O          0.29198399    0.85754699   -0.96905202
 C         -1.85625100    1.45508802   -0.21128500
 H         -1.40623200   -0.18559700   -1.53303301
 C          1.45667005    0.18104000   -0.53968197
 C          1.30154395   -1.31740999   -0.74003500
 C          0.17458899   -1.85195899    0.16460501
 H          2.22875905   -1.81880999   -0.45980099
 O          1.07966006   -1.60698104   -2.11455393
 O          0.69262898   -2.40007210    1.37452400
 H         -0.30206701   -2.67985296   -0.36318600
 O         -2.14344501   -1.46357405    0.59195697
 H         -0.63303697   -0.30127400    1.40406096
 H         -1.47009695    1.86891496    0.72316998
 O         -3.20933008    1.06784904    0.03693900
 H         -1.80848205    2.22938609   -0.98215300
 H         -3.65312195    0.95052803   -0.81192797
 H         -2.82391810   -0.77603602    0.66308498
 H          1.12722194   -1.68059099    1.85140204
 H          0.49146399   -0.93863302   -2.48738289
 O          1.73330498    0.37727800    0.82101798
 H          2.26059294    0.59588301   -1.15666699
 C          2.02474809    1.73403800    1.15456998
 H          2.82819700    2.11909389    0.51726699
 H          2.34874892    1.74005699    2.19456005
 H          1.13844299    2.36342192    1.04276705
