27
wb97x-d4 ma-def2-tzvp(-f) cpcm(dmso) E: -727.016794672344, G: -726.8262063
 C         -1.04794204    0.33336601   -0.76928002
 C         -1.07493806   -0.75912899    0.29475200
 O          0.29072800    0.68903100   -1.15354598
 C         -1.86658895    1.56707001   -0.41355100
 H         -1.51122606   -0.09376400   -1.66680300
 C          1.36397099    0.24044700   -0.35264701
 C          1.33533204   -1.27496397   -0.08081400
 C         -0.08606800   -1.83470500   -0.11387000
 H          1.74387097   -1.43410301    0.91765100
 O          2.19541192   -1.98542798   -0.96571898
 O         -0.25052899   -2.93857503    0.77196801
 H         -0.32611200   -2.14758611   -1.13831401
 O         -2.40286899   -1.26482606    0.34004200
 H         -0.79221201   -0.36134201    1.27578497
 H         -1.69397700    2.32183003   -1.18413401
 O         -1.53322899    2.17121696    0.83035201
 H         -2.92635298    1.29205704   -0.43827000
 H         -1.91451895    1.64196599    1.53918600
 H         -2.36576700   -2.09299302    0.83645999
 H          0.13535100   -3.72087097    0.36173701
 H          1.84958696   -1.90202999   -1.86367095
 O          1.42646098    0.89326602    0.88797599
 H          2.25457096    0.48042300   -0.94405800
 C          1.73696601    2.28014302    0.76779401
 H          2.69991112    2.40929699    0.25984299
 H          1.80356705    2.67835593    1.77992594
 H          0.95660102    2.81184602    0.22120699
