27
wb97x-d4 ma-def2-tzvp(-f) cpcm(dmso) E: -727.017219865683, G: -726.82610303
 C         -0.97399002    0.21581000   -0.70089799
 C         -0.89289898   -0.83034497    0.41802701
 O          0.29655701    0.79946798   -1.04291606
 C         -1.85776305    1.39646900   -0.31684801
 H         -1.38927102   -0.26789701   -1.59383595
 C          1.46177304    0.16053300   -0.56053299
 C          1.33808398   -1.34572005   -0.71822602
 C          0.20433199   -1.87228596    0.18132401
 H          2.26903105   -1.82198000   -0.40762299
 O          1.14122498   -1.67760897   -2.08710909
 O          0.70891798   -2.36316705    1.42168605
 H         -0.24200900   -2.73005605   -0.32453901
 O         -2.13272810   -1.52402103    0.52627999
 H         -0.67347902   -0.31114101    1.35740495
 H         -1.48040605    1.83485997    0.61316699
 O         -3.19933295    0.92851502   -0.14874800
 H         -1.80935097    2.14973497   -1.10946500
 H         -3.71456599    1.62428999    0.27449900
 H         -2.82879090   -0.84935898    0.56600100
 H          1.11956894   -1.61600995    1.87708604
 H          0.57669997   -1.00832903   -2.49354792
 O          1.69783998    0.40536499    0.79944599
 H          2.27311206    0.57169700   -1.17024195
 C          1.97051501    1.77507305    1.09425795
 H          1.08531904    2.39409089    0.92889702
 H          2.79432011    2.14161801    0.47233701
 H          2.25728703    1.82039499    2.14411807
