27
wb97x-d4 ma-def2-tzvp(-f) cpcm(dmso) E: -727.027272300847, G: -726.836779
 C         -1.20703602    0.34625301   -0.25344399
 C         -1.26455402   -1.09217203    0.25169101
 O         -0.05615900    0.98137897    0.29966399
 C         -2.40665388    1.16776204    0.17518701
 H         -1.13695300    0.34390599   -1.35033000
 C          1.16148305    0.40902999   -0.16044500
 C          1.25508797   -1.02353501    0.34673601
 C          0.02984200   -1.80229998   -0.12206000
 H          1.27331603   -0.99217898    1.44504702
 O          2.44515109   -1.60899401   -0.15710600
 O          0.05488000   -3.14048290    0.36937699
 H          0.07147100   -1.89477897   -1.21203005
 O         -2.38568807   -1.73308599   -0.34097499
 H         -1.36622906   -1.07837403    1.34640396
 H         -3.31750393    0.71673298   -0.21860500
 O         -2.34081292    2.49430704   -0.33762500
 H         -2.46375608    1.17687905    1.27069104
 H         -1.51939595    2.88527989   -0.01500200
 H         -2.32981992   -2.67217302   -0.12333900
 H          0.01607800   -3.11103892    1.33520305
 H          2.39497900   -2.55666709    0.02267700
 O          2.21406198    1.14926696    0.35240000
 H          1.17428195    0.42561200   -1.26234496
 C          2.38325596    2.41142106   -0.29667699
 H          3.27015901    2.87100601    0.13776501
 H          1.51777101    3.05792689   -0.13058101
 H          2.53274393    2.26901793   -1.37227702
