27
wb97x-d4 ma-def2-tzvp(-f) cpcm(dmso) E: -727.016394481067, G: -726.8257082599999
 C         -1.28650904    0.25326201   -0.68977100
 C         -0.98613697   -0.82267398    0.36041501
 O         -0.11072000    0.68312502   -1.39368105
 C         -2.02144194    1.45262599   -0.09717300
 H         -1.92289495   -0.21113600   -1.44992805
 C          1.10368395    0.58767301   -0.70490700
 C          1.41270399   -0.84941298   -0.23994400
 C          0.14654300   -1.68663299   -0.15986501
 H          1.84689903   -0.80261397    0.76428998
 O          2.35631490   -1.40163004   -1.15334296
 O          0.41723901   -2.79965210    0.68494499
 H         -0.11344200   -2.03703594   -1.16673601
 O         -2.12150097   -1.65571404    0.56745201
 H         -0.68816799   -0.36198500    1.31048095
 H         -1.43078399    1.89269400    0.70649999
 O         -3.26299405    1.03541303    0.48154101
 H         -2.18370509    2.20847297   -0.87109298
 H         -3.90171003    0.91044199   -0.23051199
 H         -2.84013796   -1.07594705    0.85635698
 H         -0.39091301   -3.32434893    0.74240398
 H          2.55841208   -2.29934502   -0.86229002
 O          1.07309997    1.48867404    0.38301301
 H          1.87285602    0.89551300   -1.42107403
 C          2.37089801    1.89309394    0.80685699
 H          2.95546603    1.04814303    1.18658102
 H          2.23055005    2.61660504    1.60922694
 H          2.91639209    2.36239195   -0.01974600
