27
wb97x-d4 ma-def2-tzvp(-f) cpcm(dmso) E: -727.016796255567, G: -726.82551439
 C         -0.97562802    0.33267301   -0.24494800
 C         -1.17712402   -1.13807297    0.16635901
 O          0.21043199    0.84532702    0.35203400
 C         -2.14160609    1.20628905    0.17013800
 H         -0.88069898    0.37579101   -1.33898604
 C          1.36494398    0.28736100   -0.28786501
 C          1.27706695   -1.25533295   -0.35659099
 C          0.16721700   -1.75553501    0.57043898
 H          2.23623490   -1.65584505   -0.02542600
 O          1.07247603   -1.70858204   -1.69118798
 O          0.47819301   -1.47411096    1.92862701
 H          0.09013400   -2.84109807    0.48509100
 O         -1.69546402   -1.90226698   -0.92558801
 H         -1.85399497   -1.20281506    1.02420199
 H         -2.25076509    1.18296599    1.25993705
 O         -3.29012799    0.64695901   -0.46976900
 H         -1.97360694    2.23867989   -0.15225001
 H         -4.08045578    1.02743602   -0.07183900
 H         -2.51647305   -1.47610295   -1.20674503
 H          0.50658500   -0.51227701    2.02465510
 H          0.11930700   -1.77738202   -1.85322201
 O          2.47990799    0.64520502    0.45522401
 H          1.42100596    0.69897300   -1.30647802
 C          2.78427911    2.04065299    0.38422701
 H          3.74378395    2.17722988    0.88150299
 H          2.02100396    2.63652301    0.88978201
 H          2.86337495    2.35735607   -0.66132402
