27
wb97x-d4 ma-def2-tzvp(-f) cpcm(dmso) E: -727.015078465373, G: -726.82469908
 C         -1.22123301    0.40007201   -0.64207202
 C         -1.40546000   -1.10003400   -0.31347200
 O          0.09173200    0.69571197   -1.13647103
 C         -1.69979703    1.32534301    0.46751201
 H         -1.86172104    0.61783397   -1.49936199
 C          1.21792805    0.30452499   -0.37933800
 C          0.97408700   -0.96969301    0.41890201
 C         -0.06321000   -1.82397902   -0.29809999
 H          0.59843701   -0.70489001    1.41296804
 O          2.21738696   -1.65145695    0.52774400
 O         -0.14960299   -3.11427498    0.29979199
 H          0.26856500   -2.00022006   -1.32655799
 O         -2.33293200   -1.72871995   -1.19392204
 H         -1.85250795   -1.19213700    0.67919499
 H         -1.39663303    2.34941602    0.22464401
 O         -1.18650496    0.92976898    1.73708105
 H         -2.79556894    1.27836597    0.47565001
 H         -1.56419599    1.51327395    2.40382910
 H         -1.96815205   -1.70553398   -2.08770895
 H         -0.59182101   -3.02549601    1.15437698
 H          2.01713991   -2.53882194    0.85388303
 O          1.65953898    1.30159295    0.50030601
 H          1.99630105    0.11287500   -1.12829196
 C          2.16066408    2.45572495   -0.16823700
 H          2.58302307    3.10736108    0.59638101
 H          1.36145902    2.98499298   -0.69435197
 H          2.94307709    2.17839909   -0.88438201
