27
wb97x-d4 ma-def2-tzvp(-f) cpcm(dmso) E: -727.013359862375, G: -726.82241977
 C         -1.36536801    0.31647700   -0.64748597
 C         -1.17867506   -0.83453500    0.34796700
 O         -0.16183101    0.60972202   -1.37552595
 C         -1.92457294    1.59608603   -0.02307500
 H         -2.06712389   -0.03384300   -1.41049004
 C          1.04744601    0.53612298   -0.67358601
 C          1.28047597   -0.85429901   -0.03561500
 C          0.00690800   -1.68424904   -0.07559000
 H          1.56604195   -0.71803302    1.00897300
 O          2.36824608   -1.54687500   -0.63993597
 O          0.07118700   -2.79110599    0.81853002
 H         -0.16253200   -2.04138088   -1.09969103
 O         -2.37196398   -1.61163998    0.35401300
 H         -0.98980498   -0.44148001    1.35594702
 H         -1.30695295    1.90842497    0.81800997
 O         -3.23976898    1.40579700    0.49016801
 H         -1.90856397    2.38711596   -0.78071702
 H         -3.82758594    1.20272303   -0.24713400
 H         -2.17827606   -2.41058612    0.86171800
 H          0.69964701   -3.43036294    0.46336100
 H          2.14606309   -1.72120500   -1.56359196
 O          1.07451904    1.56410801    0.29575199
 H          1.82745695    0.71748400   -1.42234504
 C          2.39611793    1.89518297    0.70927101
 H          2.30798101    2.71059608    1.42636895
 H          2.99642110    2.22197604   -0.14751400
 H          2.89451003    1.04777801    1.19221795
