27
wb97x-d4 ma-def2-tzvp(-f) cpcm(dmso) E: -727.025301613241, G: -726.83402945
 C          0.91796702   -0.77367502   -0.07438500
 C          1.30517602    0.65798903    0.29502401
 O         -0.41929999   -1.01254594    0.34713501
 C          1.78947496   -1.81560898    0.61854500
 H          0.99995899   -0.90315902   -1.16334796
 C         -1.34868503   -0.17507200   -0.32991499
 C         -1.10908794    1.29078805    0.00660800
 C          0.33899200    1.64294803   -0.34315300
 H         -1.78584397    1.89604199   -0.60985303
 O         -1.36463106    1.51166499    1.38474405
 O          0.66955000    2.94119096    0.14840600
 H          0.46584401    1.60341799   -1.43068695
 O          2.64002490    0.88507497   -0.15658601
 H          1.25591695    0.75987500    1.38516700
 H          1.80647898   -1.61306298    1.69701302
 O          3.10803604   -1.85759401    0.08576100
 H          1.34731305   -2.80102897    0.46016201
 H          3.43633199   -0.94680101    0.07689700
 H          2.89782906    1.77244103    0.12153100
 H          0.35452300    3.59951210   -0.48220700
 H         -0.96565801    2.36512804    1.60176599
 O         -2.63005710   -0.53879499    0.05034800
 H         -1.21243000   -0.31290901   -1.41550195
 C         -3.03597808   -1.80573905   -0.47126400
 H         -2.44843197   -2.61669493   -0.03425900
 H         -2.92809892   -1.82192898   -1.56139803
 H         -4.08521509   -1.93145704   -0.20655100
