27
wb97x-d4 ma-def2-tzvp(-f) cpcm(dmso) E: -727.023015171386, G: -726.8328845999999
 C          1.02902997   -0.64428800   -0.08589700
 C          1.37092102    0.80810499    0.24417099
 O         -0.30157501   -0.90185201    0.36008501
 C          1.91793299   -1.67478096    0.61131299
 H          1.09276497   -0.79706597   -1.17390501
 C         -1.26618695   -0.12005900   -0.32711399
 C         -1.06013799    1.36907804   -0.06308500
 C          0.36926001    1.74118400   -0.43197399
 H         -1.75941098    1.93357301   -0.68981099
 O         -1.24595904    1.69772005    1.30772996
 O          0.65553999    3.09963989   -0.12064100
 H          0.48667499    1.64274895   -1.51524997
 O          2.68953395    1.09904599   -0.20051500
 H          1.30378699    0.93366200    1.33259594
 H          2.18262911   -1.32833505    1.61287200
 O          3.14106011   -1.91504204   -0.07352900
 H          1.34114504   -2.60061407    0.70809001
 H          2.93642306   -2.36676693   -0.90055001
 H          2.80406690    2.05396605   -0.10833500
 H          0.32419199    3.26056910    0.77363503
 H         -2.17743993    1.57104099    1.52235901
 O         -2.52677703   -0.47595799    0.13072801
 H         -1.17314994   -0.31474099   -1.40852404
 C         -2.94353008   -1.77399004   -0.29737201
 H         -2.90648103   -1.84392703   -1.38986504
 H         -3.97073603   -1.90124202    0.04197000
 H         -2.31357694   -2.55167294    0.14081700
