27
wb97x-d4 ma-def2-tzvp(-f) cpcm(dmso) E: -727.021896268399, G: -726.83043956
 C          1.26442301   -0.53966498   -0.23891801
 C          1.30324495    0.88422602    0.31341299
 O         -0.07072200   -1.04879701   -0.16962200
 C          2.13637805   -1.49177003    0.55542803
 H          1.59173203   -0.52886897   -1.28786802
 C         -0.96015698   -0.29562601   -0.98800302
 C         -1.11194897    1.09816599   -0.37152600
 C          0.26921800    1.75944495   -0.39486000
 H         -1.80865800    1.68798196   -0.97100103
 O         -1.62760901    1.08787000    0.95542997
 O          0.23449799    3.05638194    0.18550800
 H          0.58453900    1.89426899   -1.43377995
 O          2.61591005    1.39704502    0.12454300
 H          1.06874299    0.85124499    1.38660502
 H          3.16402292   -1.12825799    0.55411100
 O          2.15440989   -2.79470491   -0.01755000
 H          1.77667403   -1.52641404    1.59127200
 H          1.24271905   -3.10966802   -0.04845600
 H          2.59947610    2.32465696    0.39281800
 H         -0.24331000    2.97632408    1.02315104
 H         -1.19464099    0.37847501    1.44808102
 O         -2.12432194   -1.02177596   -1.20149899
 H         -0.51693201   -0.17502700   -1.98437405
 C         -2.92672491   -1.35698402   -0.06184600
 H         -3.49870396   -0.49505901    0.28444701
 H         -2.31398296   -1.74598002    0.75399798
 H         -3.60827398   -2.13748908   -0.39950299
