27
wb97x-d4 ma-def2-tzvp(-f) cpcm(dmso) E: -727.021785634895, G: -726.83014364
 C          1.19531596   -0.65977299   -0.48294401
 C          1.37684596    0.76230103    0.04802000
 O         -0.14856200   -1.09845603   -0.26179999
 C          2.10721993   -1.67015505    0.19074000
 H          1.40853202   -0.66516697   -1.56135595
 C         -1.09110105   -0.28114700   -0.94795400
 C         -1.08712602    1.10676098   -0.30180901
 C          0.30863699    1.69748700   -0.51435602
 H         -1.83252394    1.73874497   -0.78938198
 O         -1.40713406    1.09544206    1.08582306
 O          0.42358899    2.98834991    0.07139600
 H          0.48417899    1.82855499   -1.58608699
 O          2.67882705    1.19758499   -0.32424101
 H          1.29031599    0.74333900    1.14121306
 H          1.94426501   -2.65068793   -0.26965800
 O          1.90720105   -1.73797500    1.59897804
 H          3.14548707   -1.37783599    0.03084100
 H          1.00461304   -2.04207897    1.75277102
 H          2.76073790    2.11921310   -0.04855400
 H          0.06494000    2.92181897    0.96763903
 H         -0.94944203    0.35161099    1.49934006
 O         -2.31159592   -0.93953401   -1.02111006
 H         -0.77266002   -0.16576500   -1.99159598
 C         -2.98680592   -1.24498403    0.20503500
 H         -3.75428104   -1.97407603   -0.05434000
 H         -3.45473599   -0.35565600    0.62959200
 H         -2.30473709   -1.68791497    0.93379998
