27
wb97x-d4 ma-def2-tzvp(-f) cpcm(dmso) E: -727.022282072989, G: -726.83009421
 C          1.24220204   -0.42833200   -0.64530200
 C          1.17527699    0.60933298    0.47917801
 O         -0.05847600   -0.96384799   -0.94872600
 C          2.11793089   -1.62055504   -0.29915699
 H          1.65812802    0.04388800   -1.54656696
 C         -1.16790497   -0.10904100   -0.75940800
 C         -0.75595802    1.33960295   -0.98324102
 C          0.23286299    1.76648796    0.11587300
 H         -0.24926400    1.38237095   -1.95028102
 O         -1.86686504    2.20943093   -1.05291605
 O         -0.46208099    2.26167703    1.25918102
 H          0.82349700    2.60786510   -0.25406700
 O          2.47407603    1.06853199    0.82975501
 H          0.78754401    0.11797800    1.37224102
 H          2.11718798   -2.31081891   -1.15038395
 O          1.69410801   -2.28457594    0.88613701
 H          3.13976502   -1.28223300   -0.12761500
 H          0.80008501   -2.61150789    0.72850502
 H          2.86085010    1.51368296    0.06487600
 H         -0.93618500    1.51145399    1.64630902
 H         -2.03261709    2.51977205   -0.15105200
 O         -1.69275105   -0.21046200    0.54337603
 H         -1.92360997   -0.42848301   -1.48453701
 C         -2.36154389   -1.44387305    0.79928702
 H         -3.15971994   -1.60274804    0.06607900
 H         -2.79219198   -1.37045503    1.79727602
 H         -1.66434503   -2.28514290    0.76518202
