27
wb97x-d4 ma-def2-tzvp(-f) cpcm(dmso) E: -727.021137011681, G: -726.8300378399999
 C          1.12071705   -0.55271000   -0.74028301
 C          1.53282106    0.85918301   -0.32995901
 O         -0.16597299   -0.60981297   -1.37580395
 C          1.24617398   -1.58865094    0.37687701
 H          1.81639302   -0.86493301   -1.52268600
 C         -1.22158301    0.09054500   -0.76032799
 C         -0.85610002    1.55820298   -0.54563898
 C          0.40050200    1.67807102    0.31104401
 H         -0.63641900    1.97865498   -1.52771604
 O         -1.94928598    2.29309893   -0.02383600
 O          0.16847000    1.31978905    1.67055595
 H          0.71592200    2.72508907    0.33081901
 O          1.97884595    1.51885295   -1.51795197
 H          2.35296392    0.77780598    0.39008701
 H          0.77222902   -1.26656699    1.30529904
 O          2.64390612   -1.79846394    0.58281898
 H          0.76193798   -2.51063991    0.03928400
 H          2.75202703   -2.32869601    1.37983406
 H          2.33329511    2.38069510   -1.26785004
 H         -0.38246199    0.52319902    1.68167496
 H         -2.11301708    1.98072302    0.87523800
 O         -1.57883894   -0.44795400    0.49240801
 H         -2.06464791    0.00148100   -1.45288706
 C         -2.27215290   -1.69439304    0.41242701
 H         -3.19535804   -1.57242894   -0.16274500
 H         -2.51187110   -1.98956203    1.43300796
 H         -1.64849496   -2.46057892   -0.05368700
