27
wb97x-d4 ma-def2-tzvp(-f) cpcm(dmso) E: -727.021886557297, G: -726.82979
 C          1.14901698   -0.59143102   -0.58806300
 C          1.54361796    0.83468598   -0.21315099
 O         -0.09182300   -0.67312598   -1.30767000
 C          1.19332099   -1.57711601    0.58621103
 H          1.89285898   -0.93876100   -1.31035399
 C         -1.18321097    0.05856300   -0.79967600
 C         -0.82045001    1.53367305   -0.63145000
 C          0.37528300    1.68944097    0.30252001
 H         -0.53097099    1.90243495   -1.61648202
 O         -1.93786204    2.30179811   -0.22123601
 O          0.04364300    1.40066504    1.65794396
 H          0.69643098    2.73484802    0.29248199
 O          2.08596706    1.43737805   -1.39080501
 H          2.30588293    0.77980798    0.57022399
 H          0.64523703   -1.21914601    1.45544302
 O          2.53646493   -1.77780294    1.02007306
 H          0.74241197   -2.51877904    0.25849199
 H          3.00903702   -2.25608492    0.32827201
 H          2.43232608    2.30562901   -1.15217304
 H         -0.50756902    0.60447502    1.67059505
 H         -2.14308405    2.06201005    0.69143498
 O         -1.63008106   -0.42073900    0.44771999
 H         -1.97692001   -0.05925200   -1.54428601
 C         -2.32202911   -1.66860402    0.37719899
 H         -1.66795301   -2.45926309    0.00264600
 H         -3.19590998   -1.57544804   -0.27531800
 H         -2.64363694   -1.90985405    1.38940799
