27
wb97x-d4 ma-def2-tzvp(-f) cpcm(dmso) E: -727.022006289097, G: -726.82961
 C          1.24354994   -0.47820401   -0.50829601
 C          1.55993795    0.95960701   -0.09599600
 O          0.03559300   -0.59245902   -1.27775395
 C          1.31271398   -1.47356904    0.65084201
 H          2.02497602   -0.77117503   -1.21548104
 C         -1.10740805    0.08817300   -0.81661600
 C         -0.81281501    1.56807494   -0.57566702
 C          0.33491799    1.73179996    0.41541600
 H         -0.49532199    1.98929000   -1.53031695
 O         -1.97815001    2.27522492   -0.18813400
 O         -0.02395400    1.34432101    1.73816097
 H          0.60252601    2.79072595    0.47360399
 O          2.09119511    1.61255002   -1.25092399
 H          2.30958200    0.93649799    0.70198703
 H          2.27151990   -1.32667899    1.16081095
 O          1.18603301   -2.81949592    0.20064600
 H          0.51637000   -1.32415903    1.37658596
 H          1.94756603   -3.02425289   -0.35522801
 H          2.38210011    2.49498796   -0.99060303
 H         -0.56899703    0.54524899    1.68075895
 H         -2.25099611    1.94624496    0.67774898
 O         -1.62437499   -0.43938699    0.38476801
 H         -1.84782302   -0.03205800   -1.61445200
 C         -2.16840601   -1.75430703    0.25504601
 H         -2.93058896   -1.76729405   -0.53083700
 H         -2.62514997   -2.00206709    1.21239495
 H         -1.38459504   -2.47764111    0.02153600
