27
wb97x-d4 ma-def2-tzvp(-f) cpcm(dmso) E: -727.021714632956, G: -726.8293933
 C          1.28158200   -0.45876899   -0.38788500
 C          1.17852604    0.80327702    0.46331999
 O          0.13874200   -0.63489300   -1.25074399
 C          1.51119900   -1.71008897    0.44221601
 H          2.12773800   -0.32838899   -1.06886005
 C         -1.07084799   -0.05165000   -0.82754898
 C         -0.93769699    1.48482895   -0.71028697
 C          0.51077700    1.88687003   -0.36842301
 H         -1.20575094    1.92608404   -1.67149401
 O         -1.84282994    2.00576305    0.25380501
 O          0.54557902    3.13831997    0.29956001
 H          1.08023095    2.00406909   -1.29472101
 O          2.50257111    1.17459798    0.82857198
 H          0.58593303    0.61606097    1.36742902
 H          2.41638803   -1.57773805    1.03811395
 O          1.72221601   -2.85548306   -0.37944600
 H          0.66677397   -1.86833596    1.12057996
 H          0.95325297   -2.94066906   -0.95686799
 H          2.43872190    2.04093409    1.25132096
 H         -0.27486101    3.18791103    0.81440699
 H         -2.02942395    1.28780496    0.87769699
 O         -1.50352097   -0.54277498    0.41473699
 H         -1.79561400   -0.31575501   -1.60253298
 C         -2.12806296   -1.82529795    0.34063900
 H         -2.45504093   -2.07571793    1.34880304
 H         -1.42448199   -2.58355188   -0.01239500
 H         -2.99210000   -1.78740501   -0.32999399
