27
wb97x-d4 ma-def2-tzvp(-f) cpcm(dmso) E: -727.021136471952, G: -726.82936491
 C          1.27791202   -0.43062800   -0.33781299
 C          1.03579104    0.65782899    0.71109003
 O          0.04391400   -0.98477602   -0.82740903
 C          2.06244898   -1.60012603    0.22912800
 H          1.83296204   -0.00348000   -1.18437505
 C         -1.07969296   -0.13126300   -0.85080498
 C         -0.63873202    1.30831397   -1.07452095
 C          0.16669001    1.79220104    0.14521401
 H          0.01166700    1.31193697   -1.95248306
 O         -1.72775495    2.16399193   -1.35363996
 O         -0.69503301    2.34629107    1.13705301
 H          0.81606400    2.61265397   -0.16914600
 O          2.26322794    1.14161003    1.24128103
 H          0.50991201    0.20678000    1.55587101
 H          3.04047203   -1.25822604    0.56628799
 O          2.29002595   -2.60472608   -0.75440800
 H          1.51665604   -2.01367903    1.08645594
 H          1.42669404   -2.89293909   -1.07511795
 H          2.75136995    1.58151305    0.53349400
 H         -1.23145497    1.61814201    1.48290598
 H         -2.02554202    2.51959610   -0.50385201
 O         -1.79571497   -0.17204700    0.36142099
 H         -1.71690094   -0.49153599   -1.66533697
 C         -2.41006708   -1.43316603    0.61877602
 H         -1.65772104   -2.20686603    0.79213101
 H         -3.04558706   -1.72555101   -0.22431000
 H         -3.02160907   -1.31184900    1.51210594
