27
wb97x-d4 ma-def2-tzvp(-f) cpcm(dmso) E: -727.020572417559, G: -726.82934012
 C          1.10013795   -0.77800602   -0.42971799
 C          1.33737803    0.66948497   -0.00175700
 O         -0.25505099   -1.14375198   -0.15505300
 C          2.01582098   -1.77077603    0.26719701
 H          1.28419995   -0.86022502   -1.51103103
 C         -1.16654694   -0.35455501   -0.91189498
 C         -1.10550797    1.08673596   -0.39888901
 C          0.31486601    1.60059202   -0.64833403
 H         -1.82116699    1.70084703   -0.94959402
 O         -1.43280196    1.21993101    0.98147398
 O          0.47838899    2.92823291   -0.16478799
 H          0.50269800    1.63690698   -1.72543895
 O          2.66260099    1.02421701   -0.37606400
 H          1.22901201    0.73761201    1.08827400
 H          1.71470201   -2.77879691   -0.02559000
 O          1.94041097   -1.71540594    1.68927503
 H          3.04041409   -1.60317194   -0.07542000
 H          2.52122808   -1.01180303    1.99924195
 H          2.77305293    1.96246505   -0.17648700
 H          0.08873900    2.95016003    0.72087997
 H         -1.01446295    0.49603000    1.46600497
 O         -2.41520810   -0.96387398   -0.92318600
 H         -0.84983599   -0.34867299   -1.96263301
 C         -3.09574199   -1.12697697    0.32662001
 H         -2.42904496   -1.53052497    1.09156597
 H         -3.89499307   -1.84318304    0.13649200
 H         -3.52328491   -0.18349101    0.66885400
