27
wb97x-d4 ma-def2-tzvp(-f) cpcm(dmso) E: -727.019274231656, G: -726.8293169
 C          1.25187397   -0.48965099   -0.45122299
 C          1.06667101    0.59792900    0.59983599
 O         -0.01374300   -1.01683700   -0.88608402
 C          2.04177499   -1.67331302    0.07897200
 H          1.77253795   -0.06938900   -1.32190597
 C         -1.14590394   -0.17744400   -0.78157598
 C         -0.75841498    1.27613199   -1.02239001
 C          0.27623299    1.76650298    0.02013700
 H         -0.29202601    1.31305301   -2.00929189
 O         -1.89222002    2.11637211   -1.08192098
 O         -0.34088501    2.44934106    1.11039495
 H          0.97896302    2.43884110   -0.48043799
 O          2.35882401    1.00763500    1.03673196
 H          0.50040603    0.18337201    1.43936896
 H          3.04442811   -1.35259902    0.35939300
 O          2.19236708   -2.68656206   -0.91111797
 H          1.53523898   -2.07219291    0.96679401
 H          1.30598199   -2.95474100   -1.18292403
 H          2.23488998    1.65035105    1.74548805
 H         -0.40765101    3.38390994    0.88582200
 H         -2.22006011    2.20772696   -0.17701100
 O         -1.76421905   -0.26390800    0.47545299
 H         -1.83929098   -0.52701402   -1.55489397
 C         -2.35274100   -1.53675902    0.72892898
 H         -1.58730900   -2.31260109    0.81855702
 H         -3.04877591   -1.80496502   -0.07427700
 H         -2.89694905   -1.45319402    1.66917706
