27
wb97x-d4 ma-def2-tzvp(-f) cpcm(dmso) E: -727.020056116398, G: -726.8292417
 C          1.19545305   -0.56365001   -0.25015000
 C          1.26219404    0.87839699    0.25793701
 O         -0.14685100   -1.04443896   -0.15252601
 C          2.08102894   -1.48208499    0.56096601
 H          1.51217103   -0.58664799   -1.30241299
 C         -1.03007400   -0.29934800   -0.98194098
 C         -1.16143405    1.11005604   -0.39855599
 C          0.22770099    1.74981403   -0.45463899
 H         -1.85768700    1.69438303   -1.00389600
 O         -1.66131997    1.13717604    0.93425000
 O          0.22220901    3.05945206    0.09821100
 H          0.52936000    1.85770202   -1.50075805
 O          2.57526398    1.37476099    0.03022500
 H          1.04678094    0.87993902    1.33581996
 H          3.08034992   -1.04127300    0.61892599
 O          2.12623596   -2.75793505   -0.07621800
 H          1.67234194   -1.56721103    1.57477200
 H          2.66813588   -3.34088802    0.46687701
 H          2.56408191    2.31453991    0.25288001
 H         -0.24664900    3.00557208    0.94299603
 H         -1.23438203    0.43035501    1.43586802
 O         -2.20608306   -1.01505995   -1.17154205
 H         -0.59369999   -0.20743901   -1.98457396
 C         -2.99771404   -1.32444000   -0.01743000
 H         -2.37914991   -1.70833898    0.79642999
 H         -3.69220901   -2.10216689   -0.33468300
 H         -3.55605698   -0.45122400    0.32316700
