27
wb97x-d4 ma-def2-tzvp(-f) cpcm(dmso) E: -727.021180026748, G: -726.82865272
 C          1.07495105   -0.53680003   -0.57421899
 C          1.07007205    0.58958399    0.46530300
 O         -0.24529099   -1.01971698   -0.86036497
 C          1.83603406   -1.77113795   -0.09211800
 H          1.53538895   -0.16245900   -1.49835098
 C         -1.30917799   -0.10004900   -0.73320699
 C         -0.82570899    1.30961394   -1.04408097
 C          0.17384200    1.75742996    0.03542400
 H         -0.31149599    1.26761997   -2.00726795
 O         -1.89445496    2.22416091   -1.17687201
 O         -0.50878000    2.34363794    1.14349401
 H          0.80601197    2.54761505   -0.37236100
 O          2.38426590    1.09749496    0.66715598
 H          0.67416900    0.18042600    1.40332198
 H          1.41502202   -2.10069394    0.86058003
 O          3.22039294   -1.50432396    0.14262100
 H          1.71445596   -2.57463288   -0.82394499
 H          3.66871405   -1.44256496   -0.70971203
 H          2.97579694    0.33254400    0.75149900
 H         -1.02072203    1.63698602    1.56338799
 H         -2.04396391    2.60378599   -0.29893100
 O         -1.84458005   -0.09122400    0.56908900
 H         -2.07619405   -0.43015799   -1.44178295
 C         -2.48889399   -1.31139600    0.93110299
 H         -3.24705291   -1.57695103    0.18610500
 H         -2.96796298   -1.14335299    1.89498699
 H         -1.76483798   -2.12543893    1.01913798
