27
wb97x-d4 ma-def2-tzvp(-f) cpcm(dmso) E: -727.020596949194, G: -726.82849851
 C          1.08121002   -0.77376997   -0.29475200
 C          1.27341104    0.65939701    0.20476000
 O         -0.28803900   -1.14518094   -0.14142799
 C          1.90439606   -1.78728104    0.49244300
 H          1.36167204   -0.82777399   -1.35615695
 C         -1.13801503   -0.33278599   -0.94771802
 C         -1.12766397    1.09243405   -0.38713601
 C          0.30823201    1.61622405   -0.49114400
 H         -1.78941202    1.72165501   -0.98606098
 O         -1.58629704    1.18885303    0.95765001
 O          0.42337701    2.92372298    0.05367600
 H          0.58919400    1.69123006   -1.54565501
 O          2.62880397    1.03079104   -0.03796800
 H          1.07785201    0.67589700    1.28539503
 H          1.70459902   -1.66088903    1.56412995
 O          3.29558206   -1.68071198    0.21546701
 H          1.59468806   -2.79224300    0.19970100
 H          3.53234291   -0.74611503    0.30479801
 H          2.76173902    1.91514504    0.32565400
 H         -0.04891100    2.91688609    0.89832997
 H         -1.21570897    0.45478401    1.46470106
 O         -2.37583494   -0.94681799   -1.08224905
 H         -0.73232198   -0.29292601   -1.96628201
 C         -3.15169406   -1.16982901    0.10217900
 H         -3.63081908   -0.24902301    0.43786901
 H         -2.53924799   -1.58342600    0.90595901
 H         -3.91313505   -1.89824605   -0.17616101
