27
wb97x-d4 ma-def2-tzvp(-f) cpcm(dmso) E: -727.020032850295, G: -726.8284783299999
 C          1.07608199   -0.65381098   -0.27608800
 C          1.14348698    0.76346701    0.30533400
 O         -0.25360200   -1.15643501   -0.20422401
 C          1.93017495   -1.64454103    0.50860697
 H          1.40787601   -0.62307101   -1.32500994
 C         -1.16867006   -0.35557401   -0.93670398
 C         -1.26476502    1.04438496   -0.32510301
 C          0.12843201    1.66249299   -0.38386199
 H         -1.94797802    1.63846695   -0.94455999
 O         -1.73052704    0.99104202    1.01536298
 O          0.05096700    2.93905306    0.24293301
 H          0.42252499    1.77652705   -1.43508697
 O          2.42175603    1.35959697    0.10753100
 H          0.90917999    0.71335900    1.37566197
 H          1.60056305   -1.65476799    1.54997206
 O          3.30986905   -1.27110696    0.51990598
 H          1.80116904   -2.64674902    0.09058300
 H          3.69600701   -1.50646496   -0.33264801
 H          3.08171391    0.71716100    0.41006699
 H          0.95253998    3.26143098    0.36651799
 H         -1.50311899    1.84032404    1.41678596
 O         -2.36561894   -1.04826903   -1.08244002
 H         -0.79317898   -0.22958800   -1.96099102
 C         -3.08211994   -1.40077496    0.10822100
 H         -2.41109800   -1.80297303    0.86858201
 H         -3.79235697   -2.17156005   -0.19107699
 H         -3.61930799   -0.54161900    0.51173002
