27
wb97x-d4 ma-def2-tzvp(-f) cpcm(dmso) E: -727.019131152619, G: -726.82821353
 C          1.14795804   -0.54649198   -0.68853599
 C          1.56489098    0.89520299   -0.39817899
 O         -0.12236100   -0.62164098   -1.34631097
 C          1.22059000   -1.47187901    0.52544898
 H          1.85156703   -0.94751799   -1.42479706
 C         -1.20024800    0.04932000   -0.73656601
 C         -0.86831403    1.51309597   -0.44562301
 C          0.46579599    1.71330094    0.27538300
 H         -0.79056299    2.01452804   -1.41274500
 O         -1.93352497    2.13019705    0.26514599
 O          0.41413400    1.34537601    1.64765000
 H          0.73790902    2.77153492    0.18851601
 O          1.87501800    1.58917904   -1.60820305
 H          2.43615103    0.87335199    0.26360601
 H          0.71328199   -1.04083204    1.38700402
 O          2.60988903   -1.67389500    0.80344200
 H          0.73870599   -2.41906905    0.26141599
 H          2.68292594   -2.08356905    1.67208099
 H          2.60962892    1.13426697   -2.03665709
 H         -0.28344500    1.86996496    2.05870008
 H         -2.28589296    1.46376503    0.87173498
 O         -1.62788904   -0.55334598    0.45804399
 H         -2.00811791   -0.00119900   -1.47519898
 C         -2.34617090   -1.76849198    0.25273001
 H         -1.70479095   -2.53267407   -0.19424400
 H         -3.21240091   -1.59600902   -0.39541501
 H         -2.68472600   -2.10646796    1.23157704
