27
wb97x-d4 ma-def2-tzvp(-f) cpcm(dmso) E: -727.01993345114, G: -726.82806603
 C          1.30941105   -0.45704401   -0.45467600
 C          1.64179802    1.01060104   -0.19803400
 O          0.11384500   -0.56094801   -1.24616301
 C          1.31051600   -1.33704102    0.79260898
 H          2.08885407   -0.84377700   -1.11922503
 C         -1.05154598    0.06765500   -0.75537997
 C         -0.80540699    1.53781497   -0.39735401
 C          0.46815100    1.77105403    0.41950300
 H         -0.69006401    2.07559204   -1.34178400
 O         -1.93964803    2.08737493    0.25813100
 O          0.33702299    1.34999394    1.77100003
 H          0.70009601    2.84170890    0.38684201
 O          2.03798294    1.64418995   -1.41499197
 H          2.49760890    1.07686603    0.47721201
 H          2.24825191   -1.15317404    1.33004606
 O          1.18575799   -2.71992707    0.46174201
 H          0.48136300   -1.09879601    1.44989002
 H          1.96963894   -2.98279405   -0.03511300
 H          1.45996404    1.33198094   -2.12252593
 H         -0.40754399    1.83166897    2.15106392
 H         -2.32187295    1.37657595    0.79230303
 O         -1.61070096   -0.56955701    0.36163399
 H         -1.75780296    0.00966800   -1.59148502
 C         -2.19958496   -1.83252394    0.05447700
 H         -2.95041704   -1.72113597   -0.73571700
 H         -2.67894101   -2.18795300    0.96608198
 H         -1.43673301   -2.54806900   -0.26008600
