27
wb97x-d4 ma-def2-tzvp(-f) cpcm(dmso) E: -727.019524605133, G: -726.82806463
 C          1.14926100   -0.62236100   -0.63933700
 C          1.59138596    0.81786799   -0.38312000
 O         -0.10876500   -0.68189800   -1.32508302
 C          1.16705406   -1.52810204    0.59795499
 H          1.85886598   -1.05873704   -1.34905303
 C         -1.18534803    0.03165500   -0.76342899
 C         -0.82282501    1.49140894   -0.48469400
 C          0.50066203    1.66807604    0.26123700
 H         -0.71283901    1.97834599   -1.45588195
 O         -1.88610005    2.14375591    0.19678600
 O          0.41639400    1.30802405    1.63412499
 H          0.79727900    2.71968508    0.17435899
 O          1.92252505    1.47438705   -1.60780096
 H          2.45950294    0.80780298    0.28406599
 H          0.56673700   -1.11855400    1.40729403
 O          2.51181412   -1.75682294    1.02555704
 H          0.75325799   -2.49604106    0.30754301
 H          2.75077701   -1.07183301    1.65881395
 H          2.64059305    0.98599100   -2.02715397
 H         -0.27169901    1.85406303    2.03279996
 H         -2.27190304    1.49198401    0.79899400
 O         -1.67213094   -0.53554201    0.42582101
 H         -1.96931899   -0.00947900   -1.52800000
 C         -2.40265894   -1.74294102    0.21901800
 H         -2.79599690   -2.04604101    1.18878102
 H         -1.75434899   -2.53095794   -0.17318401
 H         -3.23217392   -1.57373703   -0.47641200
