27
wb97x-d4 ma-def2-tzvp(-f) cpcm(dmso) E: -727.020192199083, G: -726.82788156
 C          1.02795005   -0.62370998   -0.70554602
 C          1.17053497    0.61379403    0.17966001
 O         -0.25793001   -0.68575299   -1.34539497
 C          1.31394398   -1.92162395    0.04468900
 H          1.75627899   -0.52842498   -1.51710200
 C         -1.31211197   -0.00492500   -0.70851302
 C         -1.02536500    1.51174200   -0.61447197
 C          0.49143901    1.78231895   -0.51222098
 H         -1.40732205    1.98744094   -1.51907301
 O         -1.71329606    2.09454107    0.48427400
 O          0.74627101    3.00294590    0.16317500
 H          0.90894699    1.87866700   -1.51841497
 O          2.56942296    0.83318299    0.35484999
 H          0.70507401    0.44475201    1.15745795
 H          0.70810598   -1.96824300    0.95671201
 O          2.70207000   -2.04388189    0.35121301
 H          1.05060995   -2.76851010   -0.59216702
 H          2.99656510   -1.19632196    0.71366900
 H          2.66794610    1.61908603    0.90740001
 H          0.01564200    3.11847901    0.79052401
 H         -1.85822999    1.38765001    1.13136899
 O         -1.55019903   -0.48221499    0.59021503
 H         -2.18649697   -0.19100900   -1.33846498
 C         -2.24679208   -1.72969198    0.62043601
 H         -1.65899897   -2.51504993    0.13886800
 H         -3.21448588   -1.63475096    0.11775800
 H         -2.39957309   -1.98048794    1.66910005
