27
wb97x-d4 ma-def2-tzvp(-f) cpcm(dmso) E: -727.018907677189, G: -726.82776733
 C          1.33431995   -0.41394100   -0.27876100
 C          1.58242297    1.07568705    0.04221200
 O          0.17651300   -0.61618602   -1.10282195
 C          1.31159401   -1.27664006    0.97743303
 H          2.15641308   -0.76076299   -0.90840000
 C         -1.05067599   -0.08746600   -0.64515698
 C         -0.90800297    1.25435400    0.09344900
 C          0.37763399    1.93394005   -0.34763500
 H         -1.76296496    1.87985396   -0.18340699
 O         -0.85204798    1.11846495    1.50775397
 O          0.47836101    3.25112295    0.17610000
 H          0.35424501    2.04039502   -1.43608499
 O          2.78083992    1.55665803   -0.56105202
 H          1.74679899    1.18963802    1.11617804
 H          2.27714109   -1.16779494    1.47732496
 O          1.16172695   -2.65906405    0.67145997
 H          0.52851701   -0.94320899    1.66203701
 H          0.30907199   -2.76471090    0.23384701
 H          2.68861198    1.48567295   -1.51964200
 H          0.38310599    3.19188190    1.13564301
 H         -1.57034504    0.52858901    1.76947606
 O         -1.73275805   -0.97683698    0.19934800
 H         -1.63289595    0.07237000   -1.55831897
 C         -2.40191889   -2.02450705   -0.50431401
 H         -1.69613194   -2.61992311   -1.09141195
 H         -3.16515398   -1.60922301   -1.17033005
 H         -2.87442207   -2.65836501    0.24507301
