27
wb97x-d4 ma-def2-tzvp(-f) cpcm(dmso) E: -727.018289324936, G: -726.82766322
 C          1.06907105   -0.51303899   -0.61962199
 C          1.02154505    0.59174597    0.44095299
 O         -0.23516700   -0.99326003   -0.97445202
 C          1.80882502   -1.75582004   -0.13828100
 H          1.56466198   -0.11810400   -1.51621795
 C         -1.33370996   -0.13335700   -0.74639302
 C         -0.93280798    1.31437695   -0.99735200
 C          0.17644700    1.77222502   -0.02393300
 H         -0.53214598    1.34894395   -2.01331711
 O         -2.04641199    2.18161988   -0.96424502
 O         -0.38439900    2.41810608    1.12105405
 H          0.83020502    2.47243094   -0.54920697
 O          2.32820511    1.08155406    0.72493500
 H          0.56205100    0.18253700    1.34749305
 H          1.35742104   -2.09808803    0.79921001
 O          3.18986893   -1.43246496    0.05490800
 H          1.70145094   -2.54266405   -0.89117998
 H          3.60993290   -2.16463304    0.52034700
 H          2.91543603    0.31196901    0.79561597
 H         -0.27855799    3.36934495    1.01549804
 H         -2.21058106    2.37562990   -0.03035100
 O         -1.83723795   -0.24215300    0.55802703
 H         -2.09977293   -0.45046601   -1.46306896
 C         -2.44012690   -1.50540900    0.82707697
 H         -2.90290904   -1.43365502    1.81097996
 H         -1.69364798   -2.30451798    0.83336800
 H         -3.20764804   -1.73285401    0.07815200
