27
wb97x-d4 ma-def2-tzvp(-f) cpcm(dmso) E: -727.017881523926, G: -726.8275017899999
 C          1.05026197   -0.64446503   -0.56696099
 C          1.51554596    0.79071403   -0.27266100
 O         -0.22157800   -0.67405200   -1.22440004
 C          1.07687998   -1.55976796    0.65773600
 H          1.74187803   -1.06377602   -1.30044496
 C         -1.29946697   -0.01876300   -0.58834797
 C         -0.89366102    1.29363298    0.11000400
 C          0.39279801    1.79580998   -0.51854700
 H         -1.69429898    2.02307010   -0.05032500
 O         -0.65160203    1.14156604    1.50351906
 O          0.75853097    3.08824992   -0.04702500
 H          0.24010199    1.89908195   -1.59512198
 O          2.64149189    1.08069599   -1.10215294
 H          1.81581104    0.87121999    0.77759397
 H          0.46656799   -1.15721905    1.46744299
 O          2.42302799   -1.76357996    1.09045100
 H          0.67929202   -2.53543591    0.37141001
 H          2.66703105   -1.04483902    1.68350995
 H          2.91503310    1.98590505   -0.90572298
 H          0.78406900    3.05245304    0.91833901
 H         -1.38534296    0.63398498    1.87237501
 O         -1.94268894   -0.82262301    0.36145100
 H         -1.99031901    0.20885400   -1.40744400
 C         -2.63527012   -1.93195403   -0.20948000
 H         -1.93785799   -2.62122798   -0.69198000
 H         -3.37287211   -1.58611500   -0.94173998
 H         -3.14336205   -2.44142103    0.60852098
