27
wb97x-d4 ma-def2-tzvp(-f) cpcm(dmso) E: -727.018385199945, G: -726.82647441
 C          1.12028205   -0.57558900   -0.75620502
 C          1.21637905    0.63554001    0.16428700
 O         -0.20253600   -0.73112500   -1.30796504
 C          1.62263298   -1.87721395   -0.14745000
 H          1.77071500   -0.36851501   -1.61424398
 C         -1.26281095   -0.02878400   -0.70890498
 C         -0.99857599    1.49370897   -0.65870702
 C          0.50999200    1.79376101   -0.52058601
 H         -1.36185598    1.93476605   -1.58810604
 O         -1.72837400    2.09804392    0.40160099
 O          0.72773999    3.00890899    0.17909101
 H          0.94361597    1.91575897   -1.51759195
 O          2.59932494    0.91061801    0.35353300
 H          0.74031699    0.43982300    1.13160300
 H          1.41316700   -2.68542290   -0.85178798
 O          1.01333296   -2.24622893    1.08349204
 H          2.70935202   -1.79983997   -0.03278700
 H          1.34515297   -1.66433597    1.77589703
 H          2.64929199    1.76251805    0.80667299
 H         -0.03726600    3.11699390    0.76615500
 H         -1.88774598    1.40228999    1.05819702
 O         -1.53100598   -0.45505801    0.60067898
 H         -2.12603688   -0.24245501   -1.34672999
 C         -2.18612409   -1.72177994    0.65984499
 H         -1.55370998   -2.50143099    0.23204400
 H         -3.14115405   -1.67759001    0.12543400
 H         -2.36410093   -1.93735898    1.71253395
