27
wb97x-d4 ma-def2-tzvp(-f) cpcm(dmso) E: -727.017257498965, G: -726.8261969
 C          1.18059802   -0.65424800   -0.21194500
 C          1.51526904    0.80407500   -0.57040501
 O         -0.12378400   -0.79111898    0.35830200
 C          2.15411901   -1.23337197    0.79750299
 H          1.22255397   -1.24305499   -1.13740504
 C         -1.08038902   -0.04884000   -0.37408799
 C         -0.89315999    1.45782197   -0.13962400
 C          0.59013802    1.78652203    0.14546400
 H         -1.20995402    1.98476899   -1.04407299
 O         -1.64683402    1.92166603    0.97508502
 O          0.88114703    1.72714305    1.53306997
 H          0.80048603    2.79672194   -0.22702000
 O          1.37990606    0.94500899   -1.98582995
 H          2.54651189    1.02130604   -0.27171400
 H          3.16308188   -1.19518995    0.38229600
 O          1.87375998   -2.60173607    1.07605600
 H          2.12597203   -0.63437301    1.71361995
 H          0.98024398   -2.64540601    1.43765998
 H          1.69435096    1.82304096   -2.23302197
 H          0.03377700    1.84836805    1.98735702
 H         -2.42870402    1.35704994    1.04861104
 O         -2.35170388   -0.40399000    0.05603800
 H         -0.95844799   -0.27209300   -1.44377697
 C         -2.77255106   -1.69635403   -0.38743401
 H         -3.79052401   -1.83503604   -0.02622300
 H         -2.12649298   -2.47591591    0.02259400
 H         -2.75937104   -1.74276495   -1.48109496
