27
wb97x-d4 ma-def2-tzvp(-f) cpcm(dmso) E: -727.019954253852, G: -726.8257489
 C          1.16531301   -0.55834001   -0.56247997
 C          1.58377397    0.89280200   -0.22685400
 O         -0.13675100   -0.62697202   -1.16197097
 C          1.33818603   -1.53007603    0.59697199
 H          1.83228302   -0.90883499   -1.35386002
 C         -1.22019804   -0.01476400   -0.49304199
 C         -0.84353101    1.32708299    0.17533600
 C          0.42982301    1.86284995   -0.47713900
 H         -1.65701199    2.02862597   -0.01494600
 O         -0.69698101    1.29778302    1.58765304
 O          0.72463101    3.16618705    0.00350200
 H          0.26741201    1.96007800   -1.55469298
 O          2.76151800    1.27150095   -0.93345600
 H          1.86665201    0.96077502    0.82604802
 H          1.07653201   -2.53872108    0.26216099
 O          0.58163202   -1.19276297    1.76174295
 H          2.39082408   -1.52365601    0.88957399
 H         -0.34805301   -1.39130104    1.55530298
 H          2.55472398    1.29509401   -1.87638497
 H          0.67584199    3.12630701    0.96864998
 H         -0.11565300    0.55574602    1.83061504
 O         -1.81617999   -0.86555099    0.45561701
 H         -1.94090796    0.18313400   -1.29247296
 C         -2.48671508   -1.98213995   -0.13924301
 H         -1.77924097   -2.62765193   -0.66504902
 H         -3.25432706   -1.63170004   -0.83610499
 H         -2.95359612   -2.53549504    0.67452002
