27
wb97x-d4 ma-def2-tzvp(-f) cpcm(dmso) E: -727.014693150119, G: -726.8237216699999
 C          1.03708696   -0.51192802   -0.54833299
 C          1.41255903    0.91934103   -0.11714900
 O         -0.23040600   -0.54941601   -1.20704901
 C          1.11295700   -1.52065504    0.59291703
 H          1.75075901   -0.82808101   -1.31336200
 C         -1.34783602   -0.04661600   -0.49441999
 C         -1.02415705    1.22068799    0.31853101
 C          0.22004101    1.85601294   -0.27958199
 H         -1.86862600    1.90984797    0.21306901
 O         -0.82354301    0.92041898    1.69447398
 O          0.44112799    3.09175491    0.39119101
 H          0.04490200    2.03245902   -1.34861100
 O          2.54679489    1.43648398   -0.81436503
 H          1.71012795    0.91588902    0.93161500
 H          0.51826298   -1.18434596    1.44447899
 O          2.49338698   -1.62932205    0.94865501
 H          0.72324902   -2.48159790    0.24062400
 H          2.55058193   -2.11239696    1.77992594
 H          2.34683108    1.44472396   -1.75917804
 H          1.32219505    3.40240598    0.14659201
 H         -0.51282299    1.73621404    2.10784006
 O         -1.92494905   -1.00190699    0.34402001
 H         -2.05356908    0.22281501   -1.28840601
 C         -2.49573398   -2.09745407   -0.36868799
 H         -3.21657610   -1.73975205   -1.11280298
 H         -3.00902796   -2.71724510    0.36601999
 H         -1.72361696   -2.68833709   -0.86800700
