27
wb97x-d4 ma-def2-tzvp(-f) cpcm(dmso) E: -727.012881600346, G: -726.82160382
 C          1.42852795   -0.35475099   -0.29902899
 C          1.02823102    0.82536203    0.58684099
 O          0.40487701   -0.67854798   -1.26036799
 C          1.82029700   -1.58800697    0.50023597
 H          2.28553104   -0.04600200   -0.90760303
 C         -0.91911298   -0.39186400   -0.87593001
 C         -1.09575701    1.14140606   -0.71587998
 C          0.22693600    1.79194796   -0.26890999
 H         -1.35970902    1.54228997   -1.70075405
 O         -2.14143205    1.40730500    0.19999900
 O         -0.08130800    2.98863697    0.43351099
 H          0.81848902    2.03259206   -1.16085196
 O          2.16703200    1.45907903    1.15959895
 H          0.42274901    0.49407801    1.43350005
 H          2.68434501   -1.34677303    1.12288296
 O          2.21142793   -2.65582108   -0.35785201
 H          0.99136502   -1.89219499    1.14477396
 H          1.47340906   -2.81714797   -0.95917201
 H          2.78042006    1.69364595    0.44999501
 H          0.66757500    3.18294907    1.01309705
 H         -1.90645802    2.23542190    0.64323199
 O         -1.23286104   -1.09978402    0.29526100
 H         -1.54017901   -0.75137800   -1.70113802
 C         -2.53662896   -1.67491806    0.29585499
 H         -2.62259412   -2.25698709    1.21340406
 H         -2.66499901   -2.33751202   -0.56738698
 H         -3.31017089   -0.90302598    0.28268799
