27
wb97x-d4 ma-def2-tzvp(-f) cpcm(dmso) E: -727.01218774809, G: -726.82123904
 C          1.23595703   -0.49013001   -0.60721499
 C          1.03902996    0.71458501    0.31935501
 O          0.06795200   -0.76937002   -1.39667702
 C          1.67072499   -1.74237204    0.14917099
 H          2.01655006   -0.21780500   -1.32527900
 C         -1.16049504   -0.37395599   -0.83432400
 C         -1.20632696    1.17040300   -0.70288599
 C          0.20146801    1.73293698   -0.42534000
 H         -1.54963303    1.56692004   -1.66473997
 O         -2.12563705    1.53355300    0.31087700
 O          0.05381700    2.94455409    0.30595100
 H          0.69205898    1.94263101   -1.38262701
 O          2.28627610    1.32667398    0.63624603
 H          0.53007603    0.41675201    1.24209595
 H          0.92418998   -2.00094295    0.89933097
 O          2.89639211   -1.50364697    0.85070300
 H          1.77663696   -2.57816696   -0.54879099
 H          3.62025905   -1.54162300    0.21372201
 H          2.82503009    0.64913499    1.06859004
 H          0.90033501    3.13351989    0.73101997
 H         -1.77555394    2.34060597    0.71526498
 O         -1.34569705   -1.02656102    0.39572001
 H         -1.92129898   -0.70682102   -1.54582095
 C         -2.66405511   -1.52678204    0.59957302
 H         -2.65166402   -2.06719995    1.54610598
 H         -2.94478989   -2.21358204   -0.20679300
 H         -3.39160490   -0.71331298    0.65676802
