27
wb97x-d4 ma-def2-tzvp(-f) cpcm(dmso) E: -727.024718843509, G: -726.83513242
 C          1.08414495   -0.50923502   -0.07346200
 C          1.37009001    0.95296299    0.30282500
 O         -0.24807701   -0.85900402    0.29009101
 C          2.02091289   -1.46032000    0.63712698
 H          1.20927000   -0.62578398   -1.16141295
 C         -1.21043706   -0.09036000   -0.40959099
 C         -1.09508801    1.38410795   -0.04020300
 C          0.32082701    1.87347496   -0.32548100
 H         -1.80276501    1.95560002   -0.65084201
 O         -1.34438300    1.60407996    1.34270406
 O          0.47860399    3.22213006    0.08825000
 H          0.47149700    1.86332500   -1.41076696
 O          2.68336296    1.33571196   -0.08626000
 H          1.33796203    1.05343103    1.39133894
 H          3.04691601   -1.10369503    0.51450598
 O          1.86887503   -2.76294994    0.07226400
 H          1.77302599   -1.46936405    1.70515800
 H          2.46042705   -3.36019802    0.54326999
 H          2.72982192    1.33244300   -1.05097401
 H          0.10516700    3.28871703    0.97750199
 H         -2.27221107    1.40699100    1.51566803
 O         -2.47724295   -0.53151798   -0.05183900
 H         -1.04706204   -0.21209100   -1.49334204
 C         -2.79456592   -1.82804799   -0.56127900
 H         -2.17969704   -2.59640598   -0.08671700
 H         -2.64476705   -1.85762000   -1.64596403
 H         -3.84460998   -2.00637889   -0.33256999
