27
wb97x-d4 ma-def2-tzvp(-f) cpcm(dmso) E: -727.02497081254, G: -726.83511067
 C          0.97968102   -0.62279302   -0.32835999
 C          1.38857305    0.83574402   -0.07705600
 O         -0.28943601   -0.88459700    0.26561901
 C          1.97497702   -1.62473905    0.21625800
 H          0.91672200   -0.78138298   -1.41536105
 C         -1.31268501   -0.10379000   -0.32683399
 C         -1.06708002    1.38199902   -0.09039300
 C          0.31138700    1.77312398   -0.61539298
 H         -1.83217597    1.95218301   -0.62901402
 O         -1.09630895    1.70209706    1.29580498
 O          0.58869398    3.13509202   -0.32136801
 H          0.30179399    1.68829894   -1.70649898
 O          2.60478902    1.12866700   -0.76014799
 H          1.50661600    0.99795598    0.99735397
 H          1.56817198   -2.63162494    0.07413200
 O          2.20912790   -1.36515903    1.60020900
 H          2.90523505   -1.54306304   -0.35531899
 H          2.84232211   -2.01690698    1.92014897
 H          3.34130907    0.89117700   -0.18640700
 H          0.37146899    3.27189708    0.61045498
 H         -1.98117995    1.50973701    1.62787902
 O         -2.52638698   -0.43996799    0.25913200
 H         -1.33523095   -0.30591899   -1.41079903
 C         -2.99314594   -1.74246705   -0.09683100
 H         -3.98686194   -1.84880602    0.33669400
 H         -2.33468199   -2.51758194    0.30221501
 H         -3.05569696   -1.83917701   -1.18611705
