33
energy: -953.176576370646
 C         -1.21659601    0.29359901    0.81041098
 C         -1.40919697   -0.93302202   -0.11283100
 O         -1.27522099   -2.15289497    0.58986598
 C         -0.57240897   -0.76528901   -1.35204303
 O          0.75535500   -1.06558001   -1.36666203
 C         -0.86500400    0.51852602   -2.07769108
 C         -0.66729403    1.68848395   -1.08478904
 C         -1.08073199    3.02803993   -1.65390396
 O         -0.82612902    4.09990311   -0.74183202
 O         -1.49341404    1.48181796    0.07683400
 O         -0.04237000    0.68825102   -3.22847390
 O          0.07571100    0.27194899    1.33553195
 H          0.38498801    1.72206295   -0.78584599
 H         -1.95960104    0.28487599    1.61477196
 H         -1.90496194    0.53202403   -2.41352010
 C          0.28904501    1.19868195    2.39927697
 H         -0.32125399   -2.38659096    0.69116300
 H         -0.50249797    3.23592210   -2.55224109
 H         -2.14366293    2.99508095   -1.91999197
 H          0.82246500    0.30936301   -3.00966311
 H          1.04881501   -1.66590798   -0.60253400
 H         -1.26815796    3.87964511    0.08970000
 H         -0.43534100    1.03428602    3.20340395
 H          0.20961900    2.23024988    2.04843497
 H          1.29459202    1.01904905    2.77388191
 H         -2.45303702   -0.87158698   -0.43261799
 O          3.13551402   -1.37910604    1.29958904
 O          1.37580097   -2.57768989    0.61627603
 C          1.69590998   -2.33680606    2.96194100
 C          2.12103009   -2.05886412    1.52849901
 H          0.67698503   -1.97681606    3.11254001
 H          2.36272407   -1.85452795    3.67422009
 H          1.69345105   -3.41448402    3.14021707
