33
energy: -953.176985098851
 C         -2.44417810    0.45954701    0.14636999
 C         -1.78825200   -0.88500601   -0.24814799
 O         -2.30843592   -1.96417499    0.51403099
 C         -0.29416201   -0.77776301   -0.16399901
 O          0.20376500   -1.07511604    1.06549299
 C          0.26919401    0.38449100   -0.94165099
 C         -0.45409000    1.66825902   -0.48774299
 C         -0.09192600    2.87658405   -1.32498395
 O         -0.74150902    4.06444502   -0.86185801
 O         -1.87736499    1.50228500   -0.63467300
 O          1.65627897    0.58288002   -0.76964903
 O         -2.28173590    0.66407800    1.52005005
 H         -0.21463500    1.86046100    0.56203800
 H         -3.50747705    0.46351600   -0.11634800
 H          0.01693700    0.23469800   -2.00216603
 C         -3.02478600    1.77248394    2.02876902
 H         -1.76215100   -2.02011609    1.31237197
 H          0.97888100    3.05799890   -1.26077294
 H         -0.35367501    2.68279290   -2.37176609
 H          2.13156295   -0.28459901   -0.90057701
 H          1.18923700   -1.31979299    1.04066002
 H         -1.68852103    3.87252402   -0.82007903
 H         -2.64834905    2.71730494    1.63040900
 H         -2.90416098    1.76110601    3.11022496
 H         -4.08553982    1.67186606    1.77757895
 H         -2.07572007   -1.05102706   -1.28930998
 O          2.60336304   -2.01754093    1.10554397
 O          3.03890896   -1.66126800   -1.06027496
 C          4.29607487   -3.34316707    0.07682100
 C          3.23885608   -2.25101900    0.03590400
 H          4.75126123   -3.41045094    1.06428003
 H          5.06178999   -3.17974401   -0.68028402
 H          3.81053495   -4.30038977   -0.13360199
