33
energy: -953.176250251073
 C         -2.61603403    0.29160300   -0.25307000
 C         -1.85730398   -1.03663802   -0.16863400
 O         -2.60505795   -1.99692595    0.58397299
 C         -0.46130601   -0.84496701    0.33683801
 O          0.23439801   -2.00614095    0.45005301
 C          0.28733000    0.39482099   -0.05581000
 C         -0.63794500    1.60946202   -0.13875499
 C          0.00955500    2.78937197   -0.85155302
 O          1.10462999    3.32385397   -0.10651000
 O         -1.82350504    1.28882599   -0.87502003
 O          1.33742797    0.74766999    0.86453497
 O         -3.00410199    0.64501899    1.04749203
 H         -0.90519100    1.91018903    0.87781602
 H         -3.49614501    0.18974701   -0.89374202
 H          0.73956698    0.23490700   -1.04993296
 C         -3.95235991    1.71343696    1.10021102
 H         -2.78938603   -1.59449601    1.44558406
 H          0.33565900    2.47506404   -1.85026300
 H         -0.72770900    3.58498192   -0.96612501
 H          2.04150510    0.05603100    0.79468203
 H          1.22391105   -1.84044600    0.53404200
 H          1.56984103    2.56188297    0.28454500
 H         -4.82831621    1.47726798    0.48846200
 H         -3.51010489    2.64912200    0.75157899
 H         -4.25041103    1.81769598    2.14119697
 H         -1.82123804   -1.45091403   -1.18513203
 O          4.53525591   -0.98030001   -0.72543198
 O          2.78611708   -1.45611501    0.58136398
 C          3.12915802   -2.82187009   -1.34400904
 C          3.53374100   -1.66110897   -0.44567099
 H          3.83701801   -2.95728207   -2.15930295
 H          2.13475704   -2.63458490   -1.75533199
 H          3.06718302   -3.74014306   -0.75648302
