33
energy: -953.172614383148
 C         -2.59998107    0.18632001   -0.31134400
 C         -1.84817505   -0.88331503    0.50422603
 O         -1.94735205   -0.56090099    1.92484701
 C         -0.44835499   -0.95927101    0.03615100
 O          0.14836700   -2.17064691    0.06328300
 C          0.35074499    0.29227999   -0.08174700
 C         -0.60607398    1.48948801    0.01234000
 C          0.02745500    2.77930093   -0.48410299
 O          1.13175297    3.16343403    0.33840799
 O         -1.75424194    1.23016596   -0.79399401
 O          1.33829904    0.46041501    0.96083802
 O         -3.66320705    0.69556803    0.44423601
 H         -0.89746600    1.61837304    1.05867100
 H         -2.98843193   -0.28463501   -1.21937394
 H          0.86908603    0.32320100   -1.05018198
 C         -4.59559679    1.45206499   -0.32961801
 H         -1.32520497   -1.14315403    2.37990308
 H          0.34675401    2.65128112   -1.52563405
 H         -0.70835900    3.58469701   -0.44928500
 H          2.16134596   -0.04529800    0.70554602
 H          1.10279405   -2.14002109   -0.29209799
 H          1.54137695    2.33621192    0.65667403
 H         -5.41817713    1.71205997    0.33448899
 H         -4.97697115    0.85543799   -1.16531003
 H         -4.13921022    2.36570096   -0.71696502
 H         -2.34895110   -1.84013402    0.33340299
 O          3.55553198   -0.81057298    0.28937301
 O          2.49723101   -2.34546494   -0.95341903
 C          4.87156916   -2.26140690   -1.07775104
 C          3.54203296   -1.75746000   -0.54172701
 H          5.15053082   -3.16051507   -0.52148300
 H          5.65773821   -1.51881301   -0.94959998
 H          4.78343821   -2.53744006   -2.12847209
