33
energy: -953.175752448042
 C         -2.21163297    0.42393899    0.67379498
 C         -2.36025310   -0.65643400   -0.42582399
 O         -3.02171612   -1.80909300    0.07311200
 C         -1.01578295   -0.95022601   -1.02800405
 O         -0.32297900   -1.91497302   -0.36547601
 C         -0.33974600    0.29397899   -1.52886498
 C         -0.22849301    1.32106102   -0.37355700
 C          0.28759700    2.67638612   -0.83861202
 O          1.65547204    2.61736798   -1.23657894
 O         -1.54184699    1.56325197    0.15548800
 O          0.90924001    0.10107600   -2.19229102
 O         -1.54144394   -0.14361200    1.76509297
 H          0.42765599    0.92894900    0.40829399
 H         -3.19467902    0.79585302    0.98036897
 H         -1.00853598    0.74749899   -2.26708889
 C         -1.51933396    0.68839800    2.92657804
 H         -2.39635205   -2.26319599    0.65584999
 H         -0.34661600    3.03722310   -1.65802896
 H          0.21888199    3.39093208   -0.01730300
 H          1.50408602   -0.45895001   -1.63585496
 H          0.68122399   -1.79407597   -0.41255999
 H          1.73293602    1.83787000   -1.81447697
 H         -1.09368396    0.09330200    3.73195910
 H         -2.53338599    0.99871302    3.19760799
 H         -0.90264302    1.57495999    2.76447296
 H         -3.01090193   -0.21854401   -1.18501401
 O          2.21337891   -1.48428595   -0.48205701
 O          3.96354198   -0.46024400    0.45144099
 C          2.21016598   -1.23491597    1.89219797
 C          2.86383390   -1.03167701    0.53355902
 H          2.82411098   -0.82159001    2.68976092
 H          2.05393195   -2.30157995    2.06723404
 H          1.22761703   -0.75926602    1.90222394
