33
energy: -953.177309394835
 C         -2.60224891    0.34328401    0.05087600
 C         -1.84900796   -0.91663003   -0.43734100
 O         -2.36164689   -2.09630895    0.16225500
 C         -0.37101901   -0.75004500   -0.24115901
 O          0.08059500   -1.17694700    0.96746099
 C          0.16339600    0.52248299   -0.83807099
 C         -0.65586799    1.71447301   -0.29585201
 C         -0.29543701    3.03390503   -0.96568400
 O          1.02513301    3.45999289   -0.63009101
 O         -2.04851294    1.49701905   -0.56809402
 O          1.52918005    0.77144903   -0.55354500
 O         -2.54060197    0.39824700    1.44691801
 H         -0.49168301    1.79609704    0.78276902
 H         -3.64475989    0.32447901   -0.28389800
 H         -0.01160900    0.49124101   -1.92346001
 C         -3.36388206    1.41512501    2.01973510
 H         -1.88252103   -2.21323299    0.99591500
 H         -0.40586600    2.92843699   -2.05211091
 H         -0.98256499    3.81063795   -0.62652302
 H          2.08073092   -0.03792500   -0.77745903
 H          1.07912600   -1.35399401    0.96439499
 H          1.58473003    2.66316295   -0.67247802
 H         -4.39868498    1.30901599    1.67877901
 H         -2.99997997    2.41155100    1.75954700
 H         -3.32051992    1.28299201    3.09896111
 H         -2.05808496   -0.97875398   -1.50832999
 O          3.05370402   -1.29516006   -1.05755401
 O          2.54424405   -1.96648705    1.01675999
 C          4.44136620   -2.94958091   -0.04521700
 C          3.25060892   -2.00481796   -0.03139600
 H          5.32400799   -2.39804506    0.29075399
 H          4.63856411   -3.31079102   -1.05398095
 H          4.28827810   -3.78864002    0.63187802
