33
energy: -953.174839220907
 C         -2.25237608    0.50657803    0.59878498
 C         -2.38012600   -0.63085800   -0.44729000
 O         -3.05148411   -1.75777102    0.09259400
 C         -1.01430202   -0.96495497   -0.97976702
 O         -0.36173099   -1.95145798   -0.31331000
 C         -0.29144099    0.23232201   -1.51829696
 C         -0.21762399    1.32375896   -0.41964501
 C          0.32784700    2.64597297   -0.94136298
 O          1.69998395    2.54545093   -1.31863105
 O         -1.55162895    1.60766006    0.03676100
 O          0.97404402   -0.03331100   -2.11051106
 O         -1.62320304   -0.00340100    1.73898995
 H          0.39854601    0.96873701    0.41115901
 H         -3.23807001    0.91026801    0.85377800
 H         -0.91649097    0.65631002   -2.31181502
 C         -1.62312806    0.89414799    2.84958005
 H         -2.37603402   -2.27838111    0.55372399
 H         -0.28761101    2.97554898   -1.78776598
 H          0.26133600    3.40168691   -0.15753300
 H          1.61321294   -0.44929200   -1.46626103
 H          0.49886799   -1.67045105    0.17479800
 H          1.77234495    1.73203301   -1.84932899
 H         -1.22329795    0.34354901    3.69874310
 H         -2.64109111    1.22734702    3.07581711
 H         -0.99565798    1.76655304    2.65374708
 H         -3.00547099   -0.22810800   -1.24706602
 O          1.65030205   -1.38206196    1.13737094
 O          2.96561098   -0.87749702   -0.59641701
 C          3.97240996   -1.05472803    1.56308901
 C          2.77684689   -1.09985006    0.62805998
 H          4.39546919   -2.06075311    1.63224602
 H          3.67191100   -0.74699098    2.56385589
 H          4.74304819   -0.38824001    1.17837000
