33
energy: -953.177157751372
 C         -2.32948995    0.57092500    0.46748099
 C         -2.20375800   -0.58380097   -0.55381399
 O         -2.91790009   -1.73383105   -0.12173400
 C         -0.75694400   -0.85433298   -0.85101998
 O         -0.19227301   -1.72384095    0.02746700
 C         -0.01482000    0.37829700   -1.29466200
 C         -0.19059800    1.47670603   -0.21792200
 C          0.37724501    2.82563400   -0.61527997
 O         -0.22489400    3.35533595   -1.79865098
 O         -1.59597802    1.69824505    0.01754800
 O          1.34455705    0.17115501   -1.62014604
 O         -1.89762199    0.11635500    1.71959996
 H          0.29557300    1.15572596    0.70880502
 H         -3.36538100    0.92164302    0.52798402
 H         -0.50550199    0.74751198   -2.19936800
 C         -2.14550900    1.03929603    2.78132010
 H         -2.36308908   -2.17455506    0.53753901
 H          0.25181600    3.52270889    0.22041500
 H          1.44094002    2.72306991   -0.82344401
 H          1.87795997   -0.03901900   -0.80496299
 H          0.79424602   -1.90560496   -0.10787400
 H         -1.17832303    3.39895010   -1.64340997
 H         -1.53958702    1.94084299    2.67031598
 H         -1.87699294    0.53485298    3.70715690
 H         -3.20359612    1.31781697    2.80987501
 H         -2.69378090   -0.22642300   -1.46185601
 O          2.97360897   -0.40275300    0.40809801
 O          2.27589512   -2.49384904    0.04097000
 C          4.37971210   -2.18462300    1.13652301
 C          3.11876702   -1.65491903    0.47422200
 H          4.30579615   -2.01985598    2.21476889
 H          5.25317812   -1.63586903    0.78211498
 H          4.51132679   -3.24996209    0.95537603
