26
wb97x-d4 ma-def2-tzvp cpcm(acetone) E: -726.376007254745, G: -726.2005633, DLPNO-CCSD(T1) aug-cc-pvtz cpcm(acetone) E: -724.840057328772
 C         -1.24671698    0.07514200   -0.20654599
 C         -0.95551097   -1.33465004    0.29820201
 O         -0.21318699    0.96417302    0.23838000
 C         -2.54846096    0.63341200    0.33367401
 H         -1.26724803    0.07531800   -1.30279398
 C          1.04808402    0.60724998   -0.17065001
 C          1.48281097   -0.78096998    0.23270400
 O          1.97871804    1.55173802    0.09036500
 C          0.41613099   -1.78329206   -0.18158901
 H          1.59110296   -0.81466401    1.32958496
 O          2.69915199   -1.16631901   -0.38507700
 O          0.65442502   -3.06884789    0.37296101
 H          0.40180001   -1.84334397   -1.27762902
 O         -1.97103798   -2.19184399   -0.19611700
 H         -0.96104902   -1.32882500    1.39753306
 H         -3.37077308   -0.01558600    0.03232800
 O         -2.82305503    1.92546904   -0.18969500
 H         -2.50308800    0.65666199    1.42972898
 H         -2.10516810    2.51158595    0.07679400
 H         -1.70941806   -3.09779692    0.00927700
 H          1.45341897   -3.42817998   -0.02907500
 C          1.67868495    2.87179303   -0.38285899
 H          0.86241800    3.31298590    0.19135600
 H          1.41076696    2.83829689   -1.44206500
 H          2.58654404    3.45695996   -0.24598600
 H          3.41065311   -0.62646699   -0.02280400
