33
wb97x-d4 ma-def2-tzvp cpcm(acetone) E: -955.188129393817, G: -954.9670500899999, DLPNO-CCSD(T1) aug-cc-pvtz cpcm(acetone) E: -953.175251771498
 C         -1.69665003   -1.05681801    0.04345400
 C         -0.28134599   -1.16352701    0.52987099
 O          0.51433599   -1.79423594   -0.36405501
 C          0.19693799    0.08409300    1.23070800
 O          1.52098000    0.04851400    1.71363902
 C         -0.01451000    1.27221203    0.27981099
 C         -1.47866499    1.32364500   -0.15382600
 C         -1.74904895    2.41985989   -1.16615796
 O         -3.12873006    2.48680305   -1.50929105
 O         -1.85253596    0.09874400   -0.78637803
 O          0.30097499    2.50003791    0.92110699
 O         -2.55931592   -1.00957596    1.14645803
 H         -2.10433507    1.48993099    0.73237300
 H         -1.94974995   -1.89577699   -0.61388898
 H         -0.44929799    0.24968500    2.09942889
 H          0.61945301    1.13167405   -0.60748798
 C         -3.93611789   -0.99337000    0.78713000
 H          1.48678195   -1.85340595   -0.10599500
 H         -1.47866094    3.38651204   -0.74075300
 H         -1.13579404    2.24450493   -2.05942297
 H          1.12285495    2.35589099    1.40743804
 H          2.16880798   -0.00421100    0.96363002
 H         -3.39018798    1.61017001   -1.81569803
 H         -4.16846704   -1.82660401    0.11344300
 H         -4.20975685   -0.05266100    0.30062601
 H         -4.50489092   -1.10246301    1.71035504
 O          3.04875708   -2.23115492   -0.06559700
 O          3.46573496   -0.04204100   -0.11688700
 C          5.20658302   -1.54166698   -0.79461801
 C          3.80630994   -1.24277902   -0.28366601
 H          5.65755081   -2.33916211   -0.20092800
 H          5.83792686   -0.65388399   -0.76903600
 H          5.13407183   -1.89894199   -1.82578397
