33
wb97x-d4 ma-def2-tzvp cpcm(acetone) E: -955.188289594868, G: -954.9683798899999, DLPNO-CCSD(T1) aug-cc-pvtz cpcm(acetone) E: -953.175016245781
 C         -2.54858208    0.58772302   -0.03468500
 C         -2.01739693   -0.80385399   -0.36433101
 O         -2.86523604   -1.79163206    0.21012500
 C         -0.59085900   -0.95146197    0.06233900
 O         -0.14117500   -2.21971703   -0.10465000
 C          0.35474300    0.19032100   -0.17045800
 C         -0.35742801    1.52674305    0.04794000
 C          0.40901899    2.68132997   -0.56461197
 O         -0.17149401    3.93951201   -0.23773000
 O         -1.65313804    1.54815900   -0.55913001
 O          1.46999097    0.15278500    0.70312899
 O         -2.72062802    0.71393102    1.34351099
 H         -0.45693201    1.68849194    1.12645900
 H         -3.49859905    0.77226502   -0.55039400
 H          0.71299797    0.14785200   -1.21571898
 C         -3.35688710    1.93017197    1.71929801
 H         -2.38378406   -2.62695599    0.17233500
 H          1.42688501    2.68724608   -0.17381001
 H          0.45143500    2.54723001   -1.65324402
 H          2.21319699   -0.32195601    0.24704701
 H          0.85305297   -2.33045697   -0.00440200
 H         -1.09144795    3.91486406   -0.52648902
 H         -4.30041599    2.05565596    1.17525005
 H         -2.71295404    2.79308295    1.52333903
 H         -3.55890298    1.86520100    2.78824496
 H         -2.07091403   -0.89012599   -1.46478295
 O          3.47363806   -1.10431600   -0.47698700
 O          2.33969808   -2.96504307    0.01401700
 C          4.62826014   -3.18786502   -0.60896802
 C          3.38870311   -2.35248899   -0.32885799
 H          4.66202497   -4.06158495    0.04310300
 H          5.53522205   -2.59401488   -0.49338999
 H          4.57789993   -3.54109502   -1.64349902
