26
wb97x-d4 ma-def2-tzvp cpcm(acetone) E: -726.37865139871, G: -726.20221207, DLPNO-CCSD(T1) aug-cc-pvtz cpcm(acetone) E: -724.843281293981
 C         -1.14549804    0.11041000   -0.03925200
 C         -0.95106900   -1.39964998    0.08620900
 O         -0.24232700    0.80522603    0.82400900
 C         -2.53686190    0.55359101    0.36714599
 H         -0.95979398    0.40089199   -1.07855797
 C          1.12272000    0.61639303    0.52015102
 C          1.49545205   -0.85519999    0.70440400
 H          1.66601002    1.25094199    1.22891796
 O          1.44229198    0.96893799   -0.79207599
 C          0.50350797   -1.72624195    0.00024100
 H          1.48168004   -1.06635106    1.78296995
 O          2.82407999   -1.13285899    0.28391799
 O          0.77376300   -3.06351399   -0.03332500
 O         -1.70710504   -2.01102209   -0.95600700
 H         -1.34513795   -1.73185802    1.06319797
 H         -3.27734089    0.02598400   -0.23498499
 O         -2.72967696    1.94391406    0.14199500
 H         -2.70038295    0.30411199    1.42325306
 H         -2.05635190    2.41587210    0.64612699
 H         -1.60528505   -2.96643496   -0.87952697
 H          1.73430097   -3.18196511    0.00109600
 C          1.33879197    2.36625504   -1.05243003
 H          0.29670200    2.69595599   -1.01041198
 H          1.73206902    2.53157210   -2.05481195
 H          1.92973101    2.93545389   -0.32640201
 H          2.91573000   -0.79041499   -0.61584800
