27
wb97x-d4 ma-def2-tzvp(-f) cpcm(dmso) E: -727.030450548338, G: -726.83975531
 C         -1.17651296    0.22996600   -0.17256200
 C         -0.93937701   -1.25305605    0.09403900
 O         -0.32692099    1.01642799    0.67122501
 C         -2.59772992    0.67516100    0.12140800
 H         -0.96075100    0.44424501   -1.22589898
 C          1.05396795    0.78475899    0.49396101
 C          1.39516997   -0.68153602    0.75426102
 H          1.54874301    1.43739104    1.22141194
 O          1.48923004    1.08569396   -0.80356801
 C          0.52769703   -1.58500302   -0.11422700
 H          1.19035304   -0.89737701    1.80554295
 O          2.77744508   -0.93584597    0.54980499
 O          0.70803398   -2.95766091    0.22305700
 H          0.78075302   -1.42605996   -1.16993999
 O         -1.76747096   -1.99200904   -0.79626697
 H         -1.20740402   -1.47765505    1.13358903
 H         -2.68773198    1.73904598   -0.12560400
 O         -2.98031402    0.43954900    1.47272205
 H         -3.28805089    0.11205200   -0.50726801
 H         -2.37321401    0.93395299    2.03670406
 H         -1.54161406   -2.92431998   -0.68914402
 H          1.62619495   -3.18737102    0.03509800
 C          1.43776000    2.47884703   -1.10914898
 H          1.99322295    3.05426407   -0.36064300
 H          0.40364999    2.83214211   -1.14590502
 H          1.90080094    2.60590911   -2.08700609
 H          3.01407003   -0.55151099   -0.30564299
