27
wb97x-d4 ma-def2-tzvp(-f) cpcm(dmso) E: -727.026786462457, G: -726.8367567199999
 C         -1.10368204    0.14238900    0.11743700
 C         -0.75530702   -1.34477603    0.22924501
 O         -0.19240400    0.91998899    0.89961600
 C         -2.49956799    0.43280199    0.63575298
 H         -1.03663504    0.44532901   -0.93645400
 C          1.16093302    0.79488498    0.50781000
 C          1.60274196   -0.65446401    0.67965698
 H          1.71492195    1.44956505    1.19004905
 O          1.37274301    1.18195999   -0.81829202
 C          0.70779502   -1.57384706   -0.13327700
 H          1.47823203   -0.90003800    1.74162900
 O          2.96690512   -0.77149802    0.30905899
 O          1.11495697   -2.90921307    0.14880000
 H          0.84592199   -1.35928404   -1.20095694
 O         -1.60368598   -2.15297008   -0.58027202
 H         -0.92099702   -1.67767704    1.25868595
 H         -3.20152402   -0.27197501    0.18109900
 O         -2.90451407    1.77856696    0.39829600
 H         -2.51624298    0.29069099    1.71923494
 H         -3.04183197    1.88847005   -0.54997998
 H         -1.49864805   -1.88018894   -1.50154698
 H          0.58437198   -3.50289512   -0.39613700
 C          1.16113198    2.57531691   -1.03391397
 H          1.77564502    3.16716099   -0.34606600
 H          0.10876300    2.84097600   -0.89772600
 H          1.45900297    2.78417206   -2.06111097
 H          3.22097492   -1.69344795    0.43936399
