27
wb97x-d4 ma-def2-tzvp(-f) cpcm(dmso) E: -727.027523235069, G: -726.83659993
 C         -1.04816604    0.22394300    0.05585400
 C         -0.70632499   -1.25138605    0.28179899
 O         -0.15577599    1.05882895    0.79665202
 C         -2.43976998    0.58444399    0.56418800
 H         -0.97625601    0.44826499   -1.01562297
 C          1.20839298    0.89660698    0.45019001
 C          1.63422596   -0.54044598    0.73229498
 H          1.74837101    1.59450901    1.09967303
 O          1.45514202    1.18898201   -0.89244699
 C          0.75633001   -1.50980794   -0.04036200
 H          1.48023295   -0.71176302    1.80496800
 O          3.00668597   -0.69017297    0.40753701
 O          1.15740705   -2.82370806    0.34146899
 H          0.91541302   -1.37012005   -1.11548996
 O         -1.48376095   -2.10520601   -0.55071098
 H         -0.87879902   -1.49384499    1.33990502
 H         -2.51449299    0.33321801    1.62484205
 O         -3.46185994   -0.16088000   -0.10285100
 H         -2.60259700    1.65959895    0.44692901
 H         -3.60327101    0.22744200   -0.97483200
 H         -2.40433097   -1.81099796   -0.47194001
 H          0.70860600   -3.45310211   -0.23491900
 C          1.27119398    2.56699705   -1.20930600
 H          1.60235298    2.70048499   -2.23879099
 H          1.87399101    3.19664598   -0.54517001
 H          0.21939500    2.85467291   -1.12415195
 H          3.23766494   -1.61320400    0.57029301
