27
wb97x-d4 ma-def2-tzvp(-f) cpcm(dmso) E: -727.027514413768, G: -726.83659733
 C         -1.04532194    0.22983800    0.08905100
 C         -0.70594698   -1.24782395    0.30457199
 O         -0.12576400    1.05953801    0.80174601
 C         -2.41873693    0.59963000    0.63936001
 H         -1.00428998    0.45376900   -0.98411500
 C          1.22611797    0.88974202    0.41279101
 C          1.65160203   -0.54952800    0.68193102
 H          1.78984594    1.58422196    1.04554701
 O          1.43294406    1.18089700   -0.93671000
 C          0.74481201   -1.51511800   -0.06150500
 H          1.53002000   -0.71911299    1.75912297
 O          3.01228404   -0.70816702    0.31497201
 O          1.15178001   -2.83005404    0.31141999
 H          0.87164497   -1.37909698   -1.14130700
 O         -1.51426601   -2.09522200   -0.50479800
 H         -0.84788001   -1.48987496    1.36727202
 H         -2.46237111    0.34911799    1.70194197
 O         -3.46632290   -0.13856900    0.00483100
 H         -2.57769608    1.67586505    0.52678102
 H         -3.62945700    0.24821600   -0.86404097
 H         -2.43020606   -1.79680598   -0.39458701
 H          0.70490700   -3.45865107   -0.26714399
 C          1.24838197    2.56017494   -1.24762106
 H          1.86591995    3.18644094   -0.59393799
 H          0.19944000    2.85162401   -1.14208102
 H          1.56057703    2.69460511   -2.28292203
 H          3.23798299   -1.63565600    0.45942900
