27
wb97x-d4 ma-def2-tzvp(-f) cpcm(dmso) E: -727.03044961801, G: -726.83970901
 C         -1.17392302    0.22131300   -0.20211899
 C         -0.93504202   -1.25923097    0.07644200
 O         -0.34947401    1.01541996    0.65925699
 C         -2.60437298    0.65996301    0.05440200
 H         -0.93341798    0.43250400   -1.25074005
 C          1.03668106    0.79139501    0.51617700
 C          1.38052702   -0.67255002    0.78671300
 H          1.50972605    1.44752896    1.25486398
 O          1.50160694    1.09430003   -0.77056003
 C          0.53811097   -1.58333504   -0.09850100
 H          1.15348697   -0.88753802    1.83363903
 O          2.76846504   -0.91887498    0.61391598
 O          0.71906400   -2.95394993    0.24665999
 H          0.81342697   -1.42584598   -1.14887702
 O         -1.73921895   -2.00697994   -0.82826400
 H         -1.22432697   -1.48096001    1.11088395
 H         -2.69439602    1.72177398   -0.20151800
 O         -3.01832700    0.43064299    1.39760101
 H         -3.27589798    0.08892700   -0.58732802
 H         -2.42639089    0.93066001    1.97268403
 H         -1.51170897   -2.93759894   -0.71050203
 H          1.64200795   -3.17920995    0.07762600
 C          1.45350003    2.48786592   -1.07515001
 H          1.93769097    2.61773705   -2.04233694
 H          1.99095798    3.06326890   -0.31356600
 H          0.41960001    2.83880305   -1.13397300
 H          3.02164292   -0.53603101   -0.23743001
