27
wb97x-d4 ma-def2-tzvp(-f) cpcm(dmso) E: -727.030367442905, G: -726.83970247
 C         -1.18438697    0.13728100   -0.04195800
 C         -0.91515303   -1.35689199    0.08919300
 O         -0.32355800    0.86330998    0.84336299
 C         -2.59974408    0.51020199    0.35062101
 H         -0.99882501    0.45067599   -1.07546401
 C          1.05446303    0.69188201    0.58827603
 C          1.43748701   -0.78228003    0.70972401
 H          1.56173396    1.29316998    1.35071504
 O          1.42592001    1.11465800   -0.69364202
 C          0.55193698   -1.63636696   -0.19124700
 H          1.28559804   -1.08745301    1.74779701
 O          2.81326509   -0.98869002    0.42605200
 O          0.77189797   -3.02525496    0.03488000
 H          0.76020300   -1.39288795   -1.24068999
 O         -1.75547397   -2.03637791   -0.83509803
 H         -1.14501095   -1.67509794    1.11545300
 H         -3.30689311   -0.03136100   -0.27785999
 O         -2.84878492    1.89859796    0.15642700
 H         -2.77038598    0.22740000    1.39693904
 H         -2.19888091    2.38439608    0.67892402
 H         -1.50443697   -2.96837497   -0.82150900
 H          1.68740594   -3.22075391   -0.19890000
 C          1.31466603    2.52446890   -0.88126397
 H          1.88410902    3.05825996   -0.11256800
 H          0.26863900    2.84123611   -0.84514999
 H          1.72848296    2.74561906   -1.86447501
 H          3.00572705   -0.53936499   -0.40853801
