27
wb97x-d4 ma-def2-tzvp(-f) cpcm(dmso) E: -727.028213970608, G: -726.83792366
 C         -1.10022998    0.09672200   -0.12421500
 C         -0.72346300   -1.38000703    0.00032600
 O         -0.33041400    0.87642699    0.80053997
 C         -2.55226398    0.36018601    0.21918400
 H         -0.90018898    0.43342099   -1.14751303
 C          1.06701696    0.81221902    0.58509302
 C          1.53338003   -0.63040900    0.75615901
 H          1.50268400    1.45257795    1.36042595
 O          1.43309605    1.26520395   -0.68404597
 C          0.77635902   -1.54779005   -0.19001700
 H          1.29155803   -0.92028803    1.78632700
 O          2.93527293   -0.69202501    0.54943597
 O          1.19374800   -2.87897491    0.09559400
 H          1.03080595   -1.29243696   -1.22569001
 O         -1.36384106   -2.16375804   -1.00436103
 H         -0.99668097   -1.74417305    0.99791902
 H         -3.19813395   -0.22407500   -0.43805900
 O         -2.90003705    1.72734702    0.02636500
 H         -2.73852611    0.05507700    1.25675905
 H         -2.30025697    2.25515509    0.56789601
 H         -2.20771694   -2.48086500   -0.66516203
 H          0.75276101   -3.46441603   -0.53203601
 C          1.18856800    2.65734506   -0.87139499
 H          0.11619500    2.87318397   -0.87157899
 H          1.61314905    2.92430496   -1.83873498
 H          1.67563200    3.24155903   -0.08247300
 H          3.20152712   -1.61151004    0.67325300
