27
wb97x-d4 ma-def2-tzvp(-f) cpcm(dmso) E: -727.02819957378, G: -726.83689842
 C         -1.09105897    0.24582499   -0.06946000
 C         -0.82136399   -1.21814299    0.27208000
 O         -0.22072300    1.08191597    0.69871002
 C         -2.51872706    0.68359399    0.21098900
 H         -0.90443099    0.40422699   -1.14021397
 C          1.14962196    0.85067099    0.46463200
 C          1.53883600   -0.59084702    0.79715800
 H          1.67569494    1.55025804    1.12314403
 O          1.51503301    1.07662797   -0.87135100
 C          0.64539802   -1.56506002    0.04089400
 H          1.39173198   -0.74176401    1.86952996
 O          2.91840005   -0.80378801    0.54443198
 O          0.92849803   -2.88319302    0.49543500
 H          0.85946602   -1.48697901   -1.03448105
 O         -1.66798794   -2.09835410   -0.46177101
 H         -1.05440199   -1.39148402    1.32640004
 H         -2.58970499    1.75726700    0.02402000
 O         -2.92723489    0.47569099    1.56042504
 H         -3.18932891    0.16818900   -0.48210999
 H         -3.19564295   -0.44430301    1.66132903
 H         -1.51964605   -1.94889700   -1.40514398
 H          0.28778300   -3.47023606    0.07429200
 C          1.43366003    2.44832706   -1.25536096
 H          2.02412105    3.07097697   -0.57439703
 H          0.39585999    2.79290199   -1.25547302
 H          1.84107602    2.52002192   -2.26324606
 H          3.09507203   -0.48344800   -0.35046199
