27
energy: -725.508008789534
 C         -1.13598800    0.46962401   -0.32156101
 C         -0.94393301   -1.02735400   -0.08854500
 O         -0.29356700    1.21439302    0.57130998
 C         -2.55216599    0.95365298   -0.06785900
 H         -0.87890702    0.70370603   -1.35946500
 C          1.09084904    0.95090002    0.45914000
 C          1.38176000   -0.53253502    0.69012898
 H          1.55823398    1.56539702    1.23328197
 O          1.60461104    1.28411400   -0.80219102
 C          0.52392298   -1.39510500   -0.23131000
 H          1.13115704   -0.76811302    1.72507799
 O          2.76570606   -0.82256800    0.54056197
 O          0.64703602   -2.78007388    0.08899600
 H          0.82970202   -1.22862196   -1.26976001
 O         -1.74601698   -1.72055900   -1.04024696
 H         -1.26847398   -1.27477300    0.92768300
 H         -2.60217404    2.01980209   -0.30755901
 O         -2.99246693    0.71906501    1.26696801
 H         -3.23717904    0.42040199   -0.72385901
 H         -2.39298606    1.18107998    1.86383200
 H         -1.56393003   -2.66270304   -0.94752002
 H          1.56179404   -3.04505992   -0.05941600
 C          1.65025306    2.68644691   -1.06539094
 H          2.15278101    2.81117606   -2.02116895
 H          2.21390295    3.20385098   -0.28423199
 H          0.64518601    3.10709405   -1.12441802
 H          3.05771708   -0.42844599   -0.29167101
