27
energy: -725.49766667977
 C         -0.98831898    0.37739301    0.01693200
 C         -0.94497198   -1.16322994   -0.12300700
 O          0.02243000    0.81609797    0.93801898
 C         -2.30655694    0.90615201    0.56580597
 H         -0.80564398    0.82172298   -0.96441102
 C          1.35154200    0.61790597    0.48239699
 C          1.53841996   -0.77218401   -0.16819400
 H          1.96170199    0.70113599    1.38387597
 O          1.74435496    1.57601500   -0.45673701
 C          0.42867699   -1.70762002    0.31382701
 H          2.51529789   -1.16268301    0.12592000
 O          1.44378102   -0.71865201   -1.59213400
 O          0.50547898   -1.91210997    1.72152495
 H          0.56339800   -2.68714309   -0.14333899
 O         -1.27379405   -1.56958902   -1.44854999
 H         -1.69572103   -1.61972797    0.52481103
 H         -2.48636794    0.47542301    1.55589294
 O         -3.39877295    0.64848000   -0.31068900
 H         -2.24109912    1.98848903    0.66938901
 H         -3.59096289   -0.29529801   -0.31268701
 H         -0.54294300   -1.28246701   -2.01423097
 H          0.27277401   -1.08580101    2.16280198
 C          1.87773001    2.90134096    0.06080500
 H          2.57505298    2.91225696    0.90235400
 H          0.91211700    3.29278898    0.38185701
 H          2.26922703    3.51358891   -0.74726802
 H          1.77329600    0.14597601   -1.87249506
