27
energy: -725.49992173357
 C         -1.42606401    0.51225698   -0.27495900
 C         -0.85705698   -0.80016398   -0.82764602
 O         -0.41905901    1.41626000    0.24298599
 C         -2.48545790    0.33567199    0.80335802
 H         -1.91120195    1.02359903   -1.11071503
 C          0.92698503    1.02007997    0.22665700
 C          1.10817695   -0.38770199    0.78701299
 H          1.44553101    1.74798405    0.85441101
 O          1.49857199    1.04837000   -1.07034504
 C          0.22337399   -1.43702996    0.07502500
 H          0.79575503   -0.34340301    1.82943201
 O          2.48154593   -0.75235999    0.81629401
 O         -0.33774200   -2.34982491    1.01324606
 H          0.86022198   -2.03304195   -0.57726997
 O         -0.37546301   -0.63321298   -2.16132689
 H         -1.67974102   -1.51063597   -0.90372300
 H         -2.88166595    1.31548703    1.07510495
 O         -2.01055598   -0.33634099    1.97591996
 H         -3.30086994   -0.26764700    0.40509099
 H         -1.51094794    0.29069600    2.51038504
 H          0.38259900   -0.02742300   -2.11653900
 H         -0.96280301   -1.83968198    1.55861199
 C          1.67274404    2.36399508   -1.60622203
 H          0.70942098    2.84916401   -1.76834095
 H          2.18884397    2.25031209   -2.55587602
 H          2.27802300    2.96919489   -0.92765200
 H          2.83908892   -0.63893098   -0.07306900
