27
energy: -725.50027147517
 C         -1.08080399    0.11475900   -0.13824400
 C         -0.88016802   -1.41281998   -0.12204200
 O         -0.20097201    0.75051999    0.79587102
 C         -2.48689795    0.51702899    0.24945800
 H         -0.86997998    0.48570099   -1.14485097
 C          1.17206204    0.63609201    0.49082500
 C          1.54066503   -0.72567099   -0.13454600
 H          1.68188798    0.76049203    1.44815397
 O          1.60195804    1.62300205   -0.41209000
 C          0.55188102   -1.79250395    0.31440300
 H          2.55078411   -0.98588902    0.19084300
 O          1.47557902   -0.70084399   -1.55956995
 O          0.68267900   -1.91652596    1.72637200
 H          0.80567402   -2.73478103   -0.17848399
 O         -1.20445299   -1.96338797   -1.39630997
 H         -1.57410097   -1.87303102    0.58410800
 H         -3.19910002    0.00525600   -0.39694801
 O         -2.71430111    1.91456199    0.08947400
 H         -2.67523503    0.20955600    1.28393900
 H         -2.06201601    2.38242698    0.62333900
 H         -0.54478800   -1.63636994   -2.02250195
 H          0.16116500   -2.67102909    2.01985598
 C          1.54277301    2.95579004    0.09639800
 H          0.51127899    3.25869989    0.27991599
 H          1.98177004    3.60005999   -0.66104198
 H          2.11612201    3.03559589    1.02398598
 H          1.73810399    0.18443000   -1.84471500
