27
energy: -725.50506361027
 C         -1.12931597    0.49571100   -0.30181000
 C         -0.96839201   -1.01952803   -0.10466500
 O         -0.27485201    1.21932101    0.59695101
 C         -2.53636003    1.00084996   -0.03950000
 H         -0.87070203    0.73687702   -1.33753097
 C          1.10708702    0.94060200    0.44767699
 C          1.34671402   -0.54188102    0.71390301
 H          1.60213399    1.55688596    1.20363700
 O          1.58158600    1.26026702   -0.82731599
 C          0.49969801   -1.41076899   -0.21363500
 H          1.02265406   -0.72637999    1.74561596
 O          2.73038697   -0.82766998    0.58452803
 O          0.72890103   -2.79147792    0.06796400
 H          0.83059198   -1.27038002   -1.24363196
 O         -1.69429398   -1.72820902   -1.10648406
 H         -1.33352005   -1.29206598    0.89029902
 H         -2.56623507    2.07278299   -0.25541699
 O         -2.98349905    0.74357200    1.28915906
 H         -3.23617697    0.50198603   -0.70840001
 H         -2.37651491    1.18079102    1.89707100
 H         -2.60769796   -1.82967806   -0.82178402
 H          0.36339101   -2.99886894    0.93708497
 C          1.59233797    2.65921092   -1.10677302
 H          2.15856600    3.19867301   -0.34205499
 H          0.57902598    3.06203294   -1.15455604
 H          2.07664704    2.78260112   -2.07229710
 H          2.83285594   -1.78487396    0.65051502
