27
energy: -725.507956128694
 C         -1.18382394    0.27156800   -0.04819700
 C         -0.87504399   -1.22100496    0.01843200
 O         -0.31016999    0.98847401    0.83797002
 C         -2.59421492    0.60375500    0.39568600
 H         -1.03574896    0.62388903   -1.07318401
 C          1.06952596    0.85679698    0.55496800
 C          1.48571301   -0.61389601    0.60840398
 H          1.57321703    1.43573701    1.33393896
 O          1.41548705    1.34216702   -0.71283901
 C          0.59360600   -1.45790803   -0.29981899
 H          1.36648095   -0.95935398    1.63580298
 O          2.86082006   -0.78231603    0.29047599
 O          0.84619099   -2.85099792   -0.12754400
 H          0.77334899   -1.17685103   -1.34297597
 O         -1.72212195   -1.88607395   -0.91341400
 H         -1.07512796   -1.58378005    1.03419006
 H         -3.30728102    0.06653200   -0.22559200
 O         -2.88233995    1.99166596    0.24928100
 H         -2.72867393    0.28720999    1.43553400
 H         -2.23215890    2.48391199    0.76332802
 H         -1.45794904   -2.81291699   -0.94261497
 H          1.75810301   -3.02648091   -0.38562399
 C          1.29637301    2.75777197   -0.85340297
 H          1.68818498    3.01000094   -1.83549798
 H          1.87930202    3.26917410   -0.08267300
 H          0.25345200    3.07117510   -0.78611898
 H          3.03379703   -0.30358699   -0.53066701
