27
energy: -725.49702318909
 C         -1.31946003    0.59053600    0.05209500
 C         -0.90464801   -0.65419799   -0.72711998
 O         -0.21259101    1.46533096    0.37121600
 C         -2.06490707    0.28110099    1.35372305
 H         -1.98434198    1.17396104   -0.58920997
 C          1.09455895    0.96053702    0.27019000
 C          1.19151902   -0.48562399    0.74183398
 H          1.70877397    1.60866404    0.89859599
 O          1.59259200    1.00428903   -1.05774105
 C          0.27897400   -1.40848994   -0.07292900
 H          0.85672998   -0.50582200    1.77857304
 O          2.54045796   -0.92850900    0.76286900
 O         -0.15760800   -2.43798804    0.81439197
 H          0.86313403   -1.84344995   -0.88795000
 O         -0.62278497   -0.34226501   -2.09095311
 H         -1.76218104   -1.32559299   -0.74737000
 H         -1.48910403   -0.39195701    1.98620403
 O         -3.31093001   -0.36604699    1.11063004
 H         -2.20710802    1.21952999    1.89514697
 H         -3.91245103    0.26386100    0.69851899
 H          0.18574600    0.19430800   -2.09735489
 H         -0.58733898   -3.12915301    0.29817700
 C          1.89482605    2.32132792   -1.52820694
 H          2.33427191    2.20880890   -2.51593709
 H          2.61104894    2.80512691   -0.86013800
 H          0.99112898    2.92843509   -1.59687495
 H          2.90965796   -0.80159801   -0.11999900
