27
energy: -725.499431327666
 C         -1.45960402    0.50655299   -0.24263400
 C         -0.88451803   -0.79167700   -0.82152301
 O         -0.44592401    1.44952595    0.18199100
 C         -2.46098804    0.30920699    0.88050902
 H         -2.00963092    0.99392003   -1.05096197
 C          0.89709300    1.04150701    0.20775500
 C          1.05692506   -0.35261601    0.80323899
 H          1.41008699    1.78117299    0.82621998
 O          1.49485004    1.03195500   -1.07978702
 C          0.23847300   -1.41443598    0.04147900
 H          0.66900599   -0.29638299    1.81853604
 O          2.42851710   -0.70351797    0.92916900
 O         -0.25527599   -2.40864110    0.93237698
 H          0.90303999   -1.93602300   -0.64673001
 O         -0.44568300   -0.59547400   -2.16630411
 H         -1.69616306   -1.51603496   -0.88170302
 H         -2.80224609    1.28937900    1.22001505
 O         -1.86857498   -0.40487701    1.97223997
 H         -3.31858492   -0.24141200    0.48372400
 H         -2.51055908   -0.47394300    2.68641090
 H          0.32332900   -0.00313400   -2.12946391
 H         -0.89550197   -1.96117198    1.51225901
 C          1.70471001    2.33249092   -1.63850999
 H          0.75431401    2.83327389   -1.82790804
 H          2.23532701    2.18965912   -2.57624292
 H          2.30991507    2.93976593   -0.96160102
 H          2.83760309   -0.62747103    0.05831300
