27
energy: -725.496949190215
 C         -0.96953601    0.36741400    0.00547100
 C         -0.94865203   -1.16981995    0.03462300
 O          0.01692900    0.85963303    0.91134900
 C         -2.31445909    0.93640900    0.42968199
 H         -0.75225502    0.71134502   -1.00931096
 C          1.34945703    0.61974603    0.49895099
 C          1.52030301   -0.70775402   -0.26806700
 H          1.92781103    0.59830600    1.42458797
 O          1.83063102    1.63238704   -0.34522000
 C          0.47856000   -1.72695005    0.18467900
 H          2.52540898   -1.08635294   -0.05681500
 O          1.34283197   -0.55287498   -1.67283499
 O          0.67318600   -2.07871795    1.55355406
 H          0.55992299   -2.61154294   -0.45193300
 O         -1.62955904   -1.69327497   -1.10921299
 H         -1.51921201   -1.51968896    0.89548099
 H         -2.56809998    0.56719500    1.42976105
 O         -3.34006810    0.60978901   -0.50706100
 H         -2.25312400    2.02375698    0.47099000
 H         -3.20413303   -0.30126801   -0.80219001
 H         -1.14403701   -1.42541397   -1.89993298
 H          1.51824701   -2.53453994    1.63961303
 C          1.99037695    2.90401411    0.28408700
 H          1.02697504    3.31072402    0.59357202
 H          2.44436908    3.56321812   -0.45136899
 H          2.64622307    2.81890702    1.15478802
 H          1.69922304    0.31164801   -1.91578901
