27
energy: -725.495881713259
 C         -1.31647694    0.57178402    0.07687900
 C         -0.89650500   -0.67195302   -0.70377201
 O         -0.21995400    1.46917498    0.36421999
 C         -2.03159595    0.26064199    1.38866603
 H         -2.00621510    1.13587904   -0.55328703
 C          1.09273195    0.97582698    0.27049100
 C          1.19241405   -0.46291599    0.76248801
 H          1.70179105    1.63878298    0.88862097
 O          1.58702004    1.00420201   -1.05893195
 C          0.30983701   -1.40022802   -0.07575600
 H          0.83236998   -0.47342101    1.79076099
 O          2.54097795   -0.90548199    0.82544702
 O         -0.18337500   -2.48768210    0.70799702
 H          0.91150802   -1.78842795   -0.90205997
 O         -0.64970100   -0.35785601   -2.07378197
 H         -1.73871195   -1.36109805   -0.70145500
 H         -1.44746101   -0.42378500    2.00730991
 O         -3.29815412   -0.31356999    1.06445301
 H         -2.15666008    1.19898701    1.93549800
 H         -3.70840693   -0.63080299    1.87499595
 H          0.15459500    0.18384700   -2.09835911
 H          0.56835097   -2.97398210    1.06562197
 C          1.87278199    2.31805801   -1.54839802
 H          2.58942509    2.81714797   -0.89212298
 H          0.96252501    2.91528797   -1.61772096
 H          2.30511904    2.19729900   -2.53830504
 H          2.92751598   -0.82019502   -0.05497700
