27
energy: -725.50630971303
 C         -1.07992601    0.55689698    0.06875200
 C         -0.93801302   -0.97166997    0.06352700
 O         -0.09434400    1.15928304    0.91377503
 C         -2.41863704    1.02387094    0.63296199
 H         -0.96774602    0.92231899   -0.95747799
 C          1.24464798    0.87544501    0.55719697
 C          1.48861599   -0.63167000    0.57562703
 H          1.85053897    1.37903404    1.31513500
 O          1.57850802    1.34128904   -0.72108197
 C          0.48042399   -1.36629701   -0.30759999
 H          1.36790705   -0.97532803    1.60349500
 O          2.82364106   -0.95358002    0.20719101
 O          0.62038100   -2.77641702   -0.15171200
 H          0.65322500   -1.09185803   -1.35412598
 O         -1.83242202   -1.56124794   -0.87638301
 H         -1.15008700   -1.34599304    1.07347798
 H         -2.54630399    0.62821102    1.64076996
 O         -3.52696609    0.54116100   -0.13482100
 H         -2.42798591    2.11390996    0.68407100
 H         -3.60748100    1.07390594   -0.93434101
 H         -2.69107389   -1.12576497   -0.76080197
 H          1.54230297   -2.99774289   -0.32909399
 C          1.65408897    2.76293612   -0.82743299
 H          2.35841799    3.16404605   -0.09361900
 H          0.67479700    3.21996903   -0.67641902
 H          2.00689602    2.98467994   -1.83141303
 H          3.02006292   -0.49858800   -0.62208903
