27
energy: -725.498651849681
 C         -1.45449495    0.46550199   -0.26778600
 C         -0.85358202   -0.82249200   -0.83795202
 O         -0.45561799    1.43548095    0.13196801
 C         -2.44977999    0.25805101    0.87116802
 H         -2.01985502    0.92965299   -1.07987499
 C          0.88947499    1.04518998    0.19428299
 C          1.05621803   -0.34011000    0.81012499
 H          1.38274395    1.79725397    0.81376302
 O          1.51600695    1.02268898   -1.08024395
 C          0.26262900   -1.41480899    0.04118400
 H          0.64912701   -0.27744401    1.81763995
 O          2.42695308   -0.68017298    0.96101600
 O         -0.35301799   -2.34917593    0.94077402
 H          0.94585598   -1.95097601   -0.61995000
 O         -0.39557099   -0.63266200   -2.17412710
 H         -1.65213799   -1.56116998   -0.90302998
 H         -2.85195589    1.23222494    1.14860904
 O         -1.91583395   -0.30506200    2.06227589
 H         -3.27625108   -0.34906000    0.48438501
 H         -1.53322005   -1.17470598    1.85865796
 H          0.36210701   -0.02567400   -2.13288307
 H          0.32763901   -2.75188208    1.49334204
 C          1.72661602    2.31757092   -1.65268397
 H          2.27024198    2.16540694   -2.58141208
 H          2.31964707    2.93618202   -0.97539699
 H          0.77610898    2.81039596   -1.86106503
 H          2.85288191   -0.59965700    0.09838000
