27
energy: -725.500591767293
 C         -1.00437796    0.31992000   -0.40002000
 C         -0.92725003   -1.21661103   -0.26488301
 O         -0.18645000    0.94681901    0.60313702
 C         -2.40575194    0.87281603   -0.22931500
 H         -0.64341199    0.60336602   -1.39203894
 C          1.20508802    0.72468400    0.44450101
 C          1.52033103   -0.73751098    0.05673000
 H          1.63128901    0.95882398    1.42218006
 O          1.76688099    1.54823005   -0.53643101
 C          0.35658199   -1.63552594    0.47549000
 H          2.43583298   -1.03968000    0.57080001
 O          1.67508698   -0.90060502   -1.35300195
 O          0.18670800   -1.62678897    1.89061999
 H          0.58543998   -2.66549206    0.20440200
 O         -1.03512394   -1.83371902   -1.54529202
 H         -1.77323496   -1.58080602    0.31625199
 H         -2.39575410    1.94904494   -0.42326099
 O         -2.94942498    0.60145599    1.06000400
 H         -3.06491899    0.39773300   -0.95568299
 H         -2.40297103    1.04971504    1.71496296
 H         -0.22920699   -1.60870695   -2.03097510
 H         -0.15491500   -0.76349998    2.15389204
 C          1.79770100    2.93683600   -0.20153899
 H          0.78777099    3.33624291   -0.10495900
 H          2.31441307    3.44245696   -1.01299798
 H          2.34218693    3.08999205    0.73382998
 H          2.05963707   -0.08452700   -1.69999504
