27
energy: -725.506970630384
 C         -1.08137000    0.52168298    0.08823200
 C         -0.90936601   -0.99627000    0.10474700
 O         -0.09962700    1.11660099    0.94356698
 C         -2.43851590    0.97202098    0.61677301
 H         -0.95945299    0.88792700   -0.93560100
 C          1.24315298    0.85828602    0.57717699
 C          1.52013803   -0.64647698    0.55222499
 H          1.84268701    1.35183501    1.34658301
 O          1.56610000    1.36238003   -0.68939799
 C          0.49905100   -1.37191701   -0.32304201
 H          1.42971694   -1.01977098    1.57288098
 O          2.85238004   -0.92609799    0.14477900
 O          0.62014699   -2.78699803   -0.19948600
 H          0.64078498   -1.07741296   -1.36815596
 O         -1.89166105   -1.55850506   -0.76821101
 H         -1.07474005   -1.35589194    1.12682605
 H         -2.61592507    0.51688898    1.59761906
 O         -3.49597096    0.66790199   -0.28678301
 H         -2.42470098    2.05434203    0.74117899
 H         -3.39550591   -0.25970000   -0.54373699
 H         -1.81868505   -2.51894999   -0.73009199
 H          1.48721802   -3.04728007   -0.52987999
 C          1.61554098    2.78739190   -0.76058102
 H          2.30613995    3.18356609   -0.01120300
 H          0.62670302    3.22230792   -0.60675102
 H          1.97227800    3.04041791   -1.75572300
 H          3.02213407   -0.43118900   -0.66736102
