27
energy: -725.49661077768
 C         -1.35887396    0.58927000   -0.01842700
 C         -0.90189999   -0.65310198   -0.77601600
 O         -0.27333999    1.51593995    0.22385401
 C         -2.02228808    0.29528999    1.34085298
 H         -2.06214595    1.12526202   -0.65644598
 C          1.04208195    1.01444101    0.23891100
 C          1.13137197   -0.42030001    0.76049900
 H          1.60994995    1.68780994    0.88404101
 O          1.62812400    1.02096701   -1.05407405
 C          0.21561401   -1.38794398   -0.01977600
 H          0.79780602   -0.40356699    1.79702306
 O          2.48075891   -0.85952300    0.80048901
 O         -0.43104401   -2.31680298    0.85847998
 H          0.82075298   -1.92960000   -0.75030398
 O         -0.52305502   -0.34145701   -2.11160111
 H         -1.74859202   -1.33107400   -0.86182600
 H         -1.25313103    0.10594100    2.09098005
 O         -2.95202804   -0.78102601    1.29837704
 H         -2.57334208    1.18189895    1.65228105
 H         -2.43834996   -1.60006201    1.29282296
 H          0.28181899    0.20099901   -2.06872201
 H          0.23308600   -2.78081203    1.38104904
 C          1.96457803    2.32424498   -1.54156995
 H          1.06860602    2.92988491   -1.68295503
 H          2.46443295    2.18223405   -2.49606395
 H          2.63931394    2.82356501   -0.84272099
 H          2.86213899   -0.72699797   -0.07672100
