27
energy: -725.498354843127
 C         -1.28132403    0.28650200   -0.40776601
 C         -0.99948698   -1.21943402   -0.37072000
 O         -0.08621500    1.03238106   -0.68027002
 C         -2.01182008    0.84432900    0.82050502
 H         -1.91803598    0.46812001   -1.27592504
 C          1.00197399    0.78273898    0.20442200
 C          1.40965796   -0.68702298    0.17911300
 H          0.73035997    1.07531703    1.22545803
 O          2.08955097    1.52604795   -0.23985100
 C          0.21356399   -1.57931995    0.50608999
 H          2.19191694   -0.84288001    0.92689300
 O          1.87341499   -1.06313396   -1.11773598
 O         -0.05283000   -1.40763700    1.89491498
 H          0.48946300   -2.61563396    0.29301301
 O         -0.80527800   -1.72739697   -1.69285500
 H         -1.88063204   -1.72510898    0.02518100
 H         -1.48326898    0.61381298    1.74107695
 O         -3.31240201    0.27410999    0.95998901
 H         -2.06889701    1.93106306    0.71424699
 H         -3.86391401    0.57628697    0.22984900
 H          0.09120000   -1.48083401   -1.96481299
 H         -0.74870998   -2.02098608    2.15462208
 C          1.96119297    2.93783498   -0.05583700
 H          2.91821790    3.37568092   -0.32770899
 H          1.73782396    3.16446590    0.98997402
 H          1.17692196    3.34717393   -0.69294000
 H          2.46454096   -0.36895999   -1.43494403
