53
wb97x-d4 ma-def2-tzvp(-f) cpcm(dmso) E: -1515.702465017095, G: -1515.2880192
 C         -2.92387795   -2.41525197    0.17409900
 C         -2.95125508   -1.01472795   -0.40320501
 H         -2.70892906   -3.13673210   -0.61521602
 O         -4.18539190   -2.77680206    0.72917801
 H         -2.13445091   -2.47913194    0.93426400
 O         -3.22119308   -0.14415801    0.70584399
 C         -1.62263501   -0.60091001   -1.03408504
 H         -3.75593996   -0.93761599   -1.14046204
 C         -1.69845605    0.84468299   -1.50508201
 O         -1.27349401   -1.42581403   -2.14076400
 H         -0.84731799   -0.65707898   -0.26234099
 C         -3.41303897    1.21183097    0.35143700
 H         -4.41621590   -2.09737992    1.37505996
 O         -2.57365799    0.94014800   -2.62087297
 O         -4.53416300    1.40076005   -0.45979801
 H         -0.77195698   -2.17938399   -1.81088197
 H         -2.92789102    1.83921194   -2.61660099
 C         -5.75746202    1.10109103    0.20833001
 C         -2.15717793    1.73571396   -0.34781599
 H         -3.55121207    1.73220801    1.30640805
 H         -1.36559606    1.73432505    0.40917301
 O         -2.40909910    3.05930495   -0.80356002
 H         -1.55772603    3.48751807   -0.95817697
 C          2.46731091    1.18939197    0.17399301
 C          2.39881802    0.32625601   -1.09088302
 C          3.08569789   -1.02223098   -0.83877200
 H          1.35354805    0.16790800   -1.36871898
 H          2.88671803    0.85319299   -1.91682005
 C          4.55211782   -0.78405899   -0.46185899
 C          4.62160015    0.07352800    0.80700499
 H          5.05537605   -1.74180198   -0.29053399
 H          5.07330608   -0.28136200   -1.28409195
 C          3.93945599    1.42705202    0.55740303
 H          3.98951101    2.04798007    1.45670402
 H          4.45024776    1.96156001   -0.25001299
 C          1.76012599    0.46775800    1.33808398
 S          1.66062796    2.78760099   -0.06475700
 C          2.36706901   -1.74219704    0.30838001
 H          3.02928805   -1.62727296   -1.74907804
 C          2.44236112   -0.88719100    1.57914698
 H          1.32048404   -1.92420995    0.03876700
 H          2.83332992   -2.71651411    0.49073800
 H          1.92685199   -1.39632404    2.39944696
 C          3.91018200   -0.65365303    1.95411694
 H          1.81640995    1.08502698    2.23948097
 H          0.70329702    0.32104599    1.09707499
 H          3.97195601   -0.05828600    2.87172794
 H          5.66727495    0.25365201    1.07534599
 H          4.40268517   -1.61225605    2.14992309
 H         -0.69319803    1.16843402   -1.80435705
 H         -5.83050823    1.66180301    1.14737105
 H         -5.83971691    0.03121600    0.41962701
 H         -6.56409597    1.40214598   -0.45938301
