53
wb97x-d4 ma-def2-tzvp(-f) cpcm(dmso) E: -1515.689308489363, G: -1515.2794111100002
 C         -4.60843897   -2.18839407    0.04116500
 C         -3.73201799   -0.98841900   -0.26709500
 H         -5.61154985   -1.99820304   -0.35630199
 O         -4.66544819   -2.48534012    1.43221402
 H         -4.19749022   -3.06783605   -0.45533600
 O         -4.32982302    0.13504501    0.38594899
 C         -2.29495001   -1.15636098    0.23399501
 H         -3.72075105   -0.83434600   -1.35201705
 C         -1.53288996    0.14086500    0.03715800
 O         -1.68451595   -2.19657993   -0.51698601
 H         -2.32200289   -1.39867795    1.29993904
 C         -3.70700693    1.37540102    0.11922200
 H         -5.06006718   -1.72598803    1.87782598
 O         -1.05585206    0.33119699   -1.23175502
 O         -3.71339703    1.70407200   -1.23705697
 H         -0.93125898   -2.53325295   -0.01500000
 H         -0.91578603   -0.54834300   -1.62016404
 C         -5.01827717    1.98351502   -1.74400997
 C         -2.24634194    1.35111499    0.59877300
 H         -4.27974987    2.11030197    0.69542003
 H         -2.27600288    1.24738896    1.68598998
 O         -1.58332002    2.56279302    0.31277201
 H         -1.63456202    2.70211792   -0.64221299
 C          2.09016705   -0.14120799    1.00322998
 C          2.11878204   -1.21697295   -0.08890500
 C          3.41345406   -1.09788001   -0.90345198
 H          2.05203295   -2.20641303    0.37461099
 H          1.25310004   -1.10066795   -0.74639302
 C          3.48222589    0.29110101   -1.55021799
 C          3.46434498    1.36509502   -0.45632300
 H          4.39674711    0.38124901   -2.14672589
 H          2.63193297    0.43208799   -2.22695303
 C          2.16921997    1.24687600    0.35800499
 H          2.14175200    2.01286697    1.13941002
 H          1.30091906    1.40003598   -0.28934899
 C          3.30042291   -0.34065199    1.92950106
 S          0.59780502   -0.29926601    2.04340911
 C          4.61872292   -1.29085398    0.02338700
 H          3.41790390   -1.86861396   -1.68095100
 C          4.59797716   -0.21768600    1.11795795
 H          4.58733606   -2.28838110    0.47584200
 H          5.54861593   -1.21893096   -0.55139703
 H          5.45073605   -0.35760501    1.78996897
 C          4.66809320    1.17154503    0.47283000
 H          3.28223109    0.41113600    2.72541499
 H          3.24341011   -1.32737005    2.40111399
 H          4.67015314    1.94551301    1.24853504
 H          3.50819397    2.35889196   -0.91384798
 H          5.59980011    1.27201796   -0.09466800
 H         -0.45268199   -0.01889000    0.91692698
 H         -5.63984585    1.08402205   -1.74048805
 H         -4.89014006    2.33385897   -2.76745391
 H         -5.50190496    2.76302099   -1.14550698
