53
wb97x-d4 ma-def2-tzvp(-f) cpcm(dmso) E: -1515.688970914352, G: -1515.27863363
 C         -4.63494396   -1.59971297   -1.19452500
 C         -3.73997498   -0.53943402   -0.58351099
 H         -4.27479410   -1.84559298   -2.19343305
 O         -5.97373676   -1.13670802   -1.33541298
 H         -4.59944201   -2.50363994   -0.57403702
 O         -4.25258398   -0.28871599    0.72835100
 C         -2.28491998   -1.00179803   -0.47097400
 H         -3.78793311    0.37457401   -1.18492103
 C         -1.49100304    0.04206500    0.29571199
 O         -1.76049900   -1.14208806   -1.78396404
 H         -2.25396299   -1.95071006    0.07469400
 C         -3.61093998    0.76418698    1.42018402
 H         -6.28520823   -0.88643301   -0.45674601
 O         -1.09652305    1.11260700   -0.45967299
 O         -3.70585990    1.98788297    0.75671500
 H         -0.99982500   -1.73590600   -1.74755704
 H         -1.00263405    0.79889899   -1.37454998
 C         -5.03382778    2.51084709    0.72639900
 C         -2.12119603    0.43572900    1.61445796
 H         -4.11395502    0.81404901    2.39208889
 H         -2.07714009   -0.43288699    2.27604294
 O         -1.43580306    1.48577201    2.26025891
 H         -1.54570496    2.27890611    1.71899700
 C          2.17968202   -0.80697900    0.48036000
 C          3.43869305   -1.55701494    0.94197202
 C          4.68163681   -0.91935098    0.30544299
 H          3.51225591   -1.51521599    2.03374195
 H          3.36661410   -2.61064601    0.65196800
 C          4.57452917   -1.00496101   -1.22132301
 C          3.32110906   -0.25546199   -1.68843699
 H          5.46672392   -0.56835300   -1.68350804
 H          4.52236700   -2.05375004   -1.53450799
 C          2.08065605   -0.89111298   -1.04685605
 H          1.18072104   -0.36998001   -1.38570797
 H          1.99064302   -1.93953800   -1.34822297
 C          2.28299904    0.66230702    0.90587997
 S          0.75278002   -1.62659800    1.27260602
 C          4.77671385    0.54994100    0.73215997
 H          5.57017899   -1.46143496    0.64482498
 C          3.52361202    1.29981601    0.26450899
 H          4.86811399    0.61812401    1.82201302
 H          5.67228603    1.00787306    0.29788899
 H          3.58484197    2.34864211    0.57276499
 C          3.41357303    1.21509004   -1.26243401
 H          1.38113701    1.19796705    0.59587097
 H          2.34803700    0.72155899    1.99694705
 H          2.52647400    1.76024699   -1.60436797
 H          3.23421407   -0.32089299   -2.77777910
 H          4.28778315    1.68475902   -1.72662997
 H         -0.35800901   -0.67571902    0.71105897
 H         -5.68245697    1.89321995    0.09916400
 H         -4.96812105    3.51380992    0.30657300
 H         -5.44738388    2.56176090    1.73942697
