53
wb97x-d4 ma-def2-tzvp(-f) cpcm(dmso) E: -1515.687241565355, G: -1515.2763249200002
 C         -3.42940211   -2.06770205    1.13805604
 C         -3.19810104   -0.85110700    0.25602999
 H         -3.03190589   -1.87677801    2.13996291
 O         -2.75731397   -3.17711806    0.53080601
 H         -4.50398588   -2.26071501    1.21067500
 O         -3.95544291    0.20308401    0.84240001
 C         -1.71559703   -0.44520700    0.19040400
 H         -3.55513811   -1.06230795   -0.75805497
 C         -1.59457600    0.85642600   -0.57412702
 O         -0.93887001   -1.41251898   -0.49583900
 H         -1.35502195   -0.29194200    1.21534002
 C         -3.95529199    1.40113997    0.09021700
 H         -2.66552806   -3.87820792    1.18565798
 O         -1.63234794    0.71455097   -1.93668401
 O         -4.49515390    1.24029303   -1.18612802
 H         -1.28357899   -2.28564596   -0.24112600
 H         -1.26733196   -0.16270199   -2.14016604
 C         -5.90073013    0.98896599   -1.17513704
 C         -2.52179003    1.93740594   -0.05642200
 H         -4.55848885    2.10258007    0.67670602
 H         -2.18591189    2.20955205    0.94675601
 O         -2.48439193    3.10995507   -0.83917999
 H         -2.86720705    2.89462495   -1.70012999
 C          2.17478895    0.96065301    0.10985600
 C          2.19599104    0.15967000   -1.19730306
 C          3.29646301   -0.90928102   -1.13226604
 H          1.22417700   -0.31460300   -1.35393798
 H          2.37817407    0.83835602   -2.03657603
 C          4.65442419   -0.22481300   -0.94368899
 C          4.64317417    0.57989001    0.36179900
 H          5.45236397   -0.97491199   -0.91133201
 H          4.86023521    0.43861499   -1.79113102
 C          3.53800106    1.64420104    0.30084500
 H          3.53061700    2.23077106    1.22562599
 H          3.72487092    2.33228207   -0.53020197
 C          1.92212999    0.01700800    1.29245603
 S          0.92145401    2.28725100    0.05054400
 C          3.02966690   -1.85065901    0.04840900
 H          3.29575396   -1.47960699   -2.06690192
 C          3.02491808   -1.04879999    1.35502100
 H          2.06642199   -2.35521507   -0.08496400
 H          3.80343390   -2.62547112    0.08837400
 H          2.82776809   -1.71788597    2.19892812
 C          4.38271523   -0.36325699    1.54162002
 H          1.90250897    0.59674901    2.22065496
 H          0.94739199   -0.46307701    1.17716002
 H          4.39219904    0.19970600    2.48163795
 H          5.60770178    1.08047402    0.49503499
 H          5.17809486   -1.11455905    1.59943295
 H         -0.34793201    1.40668499   -0.26076299
 H         -6.11963177    0.01659500   -0.72557300
 H         -6.22993612    0.99277502   -2.21346498
 H         -6.42482519    1.77383196   -0.61931401
