53
wb97x-d4 ma-def2-tzvp(-f) cpcm(dmso) E: -1515.686077520141, G: -1515.2760186
 C         -3.56435108   -2.37391496   -0.54592800
 C         -3.24515390   -0.89196599   -0.45811400
 H         -4.64417124   -2.48224497   -0.66987401
 O         -3.20720506   -3.10167599    0.62617803
 H         -3.07228589   -2.78949189   -1.42869902
 O         -4.04308701   -0.33689699    0.59230798
 C         -1.76376295   -0.60561699   -0.16316700
 H         -3.51731300   -0.43323001   -1.41617703
 C         -1.57298005    0.88802397   -0.02892700
 O         -0.92285597   -1.17058206   -1.15020204
 H         -1.50573099   -1.07443202    0.78969097
 C         -3.98894691    1.06394601    0.68542302
 H         -2.28244710   -3.36246610    0.55642200
 O         -1.44963002    1.49206996   -1.25358605
 O         -4.44835186    1.71030295   -0.46924400
 H         -0.98842400   -0.62980998   -1.94824004
 H         -1.53539801    2.44960809   -1.12868595
 C         -5.85560989    1.57021904   -0.67279297
 C         -2.55075192    1.54588306    0.93281102
 H         -4.62414789    1.32105005    1.54010606
 H         -2.27971697    1.24469495    1.94802403
 O         -2.46346498    2.95692492    0.84458202
 H         -3.18654799    3.25279188    0.27210000
 C          2.15474391    0.54713500    0.76870602
 C          1.94908297   -0.95213902    1.01634705
 C          3.10333395   -1.74743199    0.38920301
 H          1.90416002   -1.13846898    2.09414601
 H          0.99700099   -1.26621902    0.58156002
 C          3.14492011   -1.47814000   -1.11991298
 C          3.36245489    0.01908800   -1.36605000
 H          3.95583010   -2.05376196   -1.57998395
 H          2.20704889   -1.80184102   -1.58450496
 C          2.20857000    0.81447899   -0.74011999
 H          2.34867907    1.88592005   -0.91542101
 H          1.25999200    0.52197099   -1.19784796
 C          3.48326707    0.98477203    1.40436101
 S          0.83720201    1.53097200    1.56380403
 C          4.42704105   -1.30681205    1.02571702
 H          2.94273901   -2.81509209    0.57093501
 C          4.63963413    0.19131100    0.77958202
 H          4.41147423   -1.51212704    2.10206795
 H          5.25820780   -1.87602699    0.59491402
 H          5.57875681    0.51250702    1.24160802
 C          4.68606901    0.45783499   -0.72911698
 H          3.63317204    2.05721092    1.24201405
 H          3.45020103    0.81194699    2.48541188
 H          4.85651112    1.52390897   -0.91667497
 H          3.38788605    0.21632500   -2.44277310
 H          5.51944685   -0.09295100   -1.17913795
 H         -0.36360601    1.08862901    0.65876901
 H         -6.11215401    2.18709612   -1.53291702
 H         -6.40412998    1.91831303    0.20872900
 H         -6.11520004    0.52840197   -0.87742198
