53
wb97x-d4 ma-def2-tzvp(-f) cpcm(dmso) E: -1515.685693638054, G: -1515.27601172
 C         -5.06449890   -1.39345706    1.09220803
 C         -3.98032904   -0.78656697    0.22458699
 H         -5.12427807   -2.46479297    0.90086699
 O         -6.34455204   -0.84489501    0.79528201
 H         -4.81047010   -1.23696101    2.14796090
 O         -3.92480993    0.60295600    0.56693202
 C         -2.60766602   -1.42463696    0.47882700
 H         -4.24698877   -0.90018898   -0.83186299
 C         -1.55066705   -0.64708602   -0.27990800
 O         -2.59191203   -2.79709101    0.13715300
 H         -2.38780403   -1.35775197    1.54817498
 C         -3.05568695    1.36227703   -0.24738100
 H         -6.28689289    0.10951900    0.92695600
 O         -1.47304702   -1.04124498   -1.59112203
 O         -3.39451194    1.30950904   -1.59777904
 H         -2.60163212   -2.86540294   -0.82688802
 H         -1.07876003   -0.31430399   -2.09846210
 C         -4.65533304    1.91796005   -1.87838805
 C         -1.61459994    0.84899199   -0.06362200
 H         -3.14017606    2.38904810    0.12972300
 H         -1.33850098    1.05873895    0.97575998
 O         -0.70149398    1.43676400   -0.97161698
 H         -0.84041703    2.39118791   -0.99419099
 C          2.15292907   -0.76676399    0.71010798
 C          2.27365494   -0.82497400   -0.81869799
 C          3.52391291   -0.05899100   -1.27372801
 H          2.33195090   -1.87025404   -1.13804400
 H          1.38264000   -0.38571399   -1.27503204
 C          3.41498494    1.40282297   -0.82222700
 C          3.30756688    1.46131301    0.70576000
 H          4.29517078    1.96375895   -1.15577805
 H          2.53492808    1.87036896   -1.27785599
 C          2.05953598    0.69389999    1.16462505
 H          1.97581899    0.72865999    2.25562501
 H          1.16107702    1.15183794    0.74456900
 C          3.40225601   -1.40771103    1.33317304
 S          0.71390098   -1.73218095    1.28399396
 C          4.76736593   -0.69716501   -0.64339203
 H          3.59535408   -0.10589700   -2.36513805
 C          4.65408087   -0.63966399    0.88451600
 H          4.86268520   -1.73787296   -0.97297800
 H          5.66789913   -0.16516601   -0.96981400
 H          5.53527689   -1.10478401    1.33799505
 C          4.55121708    0.82240200    1.33332896
 H          3.32132101   -1.38933003    2.42531610
 H          3.47315907   -2.45485592    1.02108097
 H          4.48940182    0.87651598    2.42601395
 H          3.22427511    2.50385594    1.03011203
 H          5.44992924    1.36919200    1.02686906
 H         -0.38998100   -1.07604897    0.37750101
 H         -5.47561693    1.34179103   -1.44174397
 H         -4.75989294    1.93747103   -2.96246195
 H         -4.68175888    2.94091201   -1.48690701
