53
wb97x-d4 ma-def2-tzvp(-f) cpcm(dmso) E: -1515.686339410531, G: -1515.27597622
 C         -4.79044914   -1.04673398   -1.32808399
 C         -3.79717803   -0.22231700   -0.53099799
 H         -4.39018917   -1.20802402   -2.33248591
 O         -6.08128500   -0.44548601   -1.38396502
 H         -4.92072916   -2.01773405   -0.84397298
 O         -4.24041224   -0.22132000    0.82958400
 C         -2.38134789   -0.82241499   -0.58995801
 H         -3.77330494    0.80374902   -0.91745698
 C         -1.47709703   -0.01926500    0.31807899
 O         -1.87849498   -0.88610703   -1.91023302
 H         -2.43096995   -1.84876597   -0.21444200
 C         -3.49383092    0.59895903    1.69258904
 H         -6.01986599    0.34664100   -1.93061304
 O         -1.03006899    1.11915898   -0.30029500
 O         -3.51890206    1.95015502    1.32759595
 H         -1.62049401    0.00611100   -2.17687106
 H         -0.66716301    1.71154296    0.37541699
 C         -4.79620600    2.56247997    1.51339996
 C         -2.01915503    0.16580901    1.72440302
 H         -3.94746804    0.46506900    2.68086004
 H         -1.97633195   -0.80027997    2.23369598
 O         -1.22870398    1.09222996    2.44779611
 H         -1.68436599    1.94626606    2.41548204
 C          2.13213706   -1.08724701    0.18682501
 C          2.38416195    0.18958101    0.99657100
 C          3.64524794    0.89317399    0.47768000
 H          1.52258098    0.85785902    0.91419899
 H          2.50134492   -0.06901200    2.05363894
 C          4.84881878   -0.04287800    0.63316298
 C          4.60691214   -1.32245398   -0.17468201
 H          5.75888014    0.45404899    0.27952000
 H          4.99752188   -0.29005501    1.69032204
 C          3.34147096   -2.02349806    0.34103400
 H          3.16593409   -2.94566894   -0.22285300
 H          3.46543193   -2.29516912    1.39468098
 C          1.95895898   -0.73490798   -1.29560804
 S          0.67774397   -1.98989296    0.82366002
 C          3.45961189    1.24936402   -1.00248802
 H          3.80928898    1.80582500    1.05981302
 C          3.22194195   -0.03099600   -1.81149697
 H          2.60835099    1.92946601   -1.11989498
 H          4.34942198    1.76776600   -1.37638497
 H          3.08383608    0.21992400   -2.86824894
 C          4.42573595   -0.96703202   -1.65510499
 H          1.77620602   -1.65080905   -1.86659396
 H          1.08784997   -0.08582700   -1.42093003
 H          4.27043581   -1.87841594   -2.24332309
 H          5.45856190   -2.00030708   -0.05773500
 H          5.33080482   -0.48032901   -2.03490496
 H         -0.38640800   -0.89022797    0.52373397
 H         -5.13429785    2.43054605    2.54659605
 H         -5.53360605    2.13444090    0.82953298
 H         -4.67086411    3.62300992    1.29975200
