53
wb97x-d4 ma-def2-tzvp(-f) cpcm(dmso) E: -1515.688491809936, G: -1515.2786171
 C         -3.51252604   -0.27035600    2.15048909
 C         -3.29337811   -0.10565500    0.65738499
 H         -4.47329617    0.18482500    2.41477203
 O         -2.45772505    0.29345500    2.92269206
 H         -3.55179310   -1.33271897    2.39259601
 O         -3.25931096    1.30139899    0.40488100
 C         -1.98495400   -0.74233502    0.17850700
 H         -4.13304186   -0.56726098    0.12613200
 C         -1.73972201   -0.37729400   -1.27436399
 O         -2.11973596   -2.15218997    0.30405501
 H         -1.16478598   -0.36373401    0.79348898
 C         -3.16168499    1.65661001   -0.95907801
 H         -2.43352103    1.24003804    2.73702908
 O         -2.42550397   -1.15481901   -2.17077589
 O         -4.23070192    1.18099499   -1.71953499
 H         -1.24060094   -2.54283309    0.38290501
 H         -2.54448700   -2.02652097   -1.75799298
 C         -5.46584177    1.83506203   -1.43060505
 C         -1.85988402    1.10357296   -1.56278396
 H         -3.14160609    2.75192499   -0.96736699
 H         -1.03890896    1.61582899   -1.05735600
 O         -1.75766504    1.40659404   -2.93653488
 H         -2.53337908    1.02989900   -3.37289596
 C          2.11531305   -0.70020401   -0.71206897
 C          3.53907490   -0.75833899   -1.28988302
 C          4.55895805   -0.40878400   -0.19846000
 H          3.73628211   -1.76256597   -1.68027997
 H          3.62412691   -0.05412800   -2.12368107
 C          4.27989817    1.00585496    0.32178801
 C          2.86470509    1.06379294    0.90791202
 H          5.01455688    1.27331805    1.08924198
 H          4.37739992    1.73051202   -0.49428400
 C          1.84440005    0.71346998   -0.18519500
 H          0.83277202    0.76589203    0.22827700
 H          1.90616298    1.43160200   -1.00887895
 C          2.00663996   -1.70341206    0.44356599
 S          0.99249899   -1.14131200   -2.08523393
 C          4.44173384   -1.41202402    0.95356798
 H          5.56515503   -0.45361799   -0.62755197
 C          3.02590394   -1.35334504    1.53675306
 H          4.65719414   -2.42415595    0.59316200
 H          5.17661715   -1.17526102    1.73085904
 H          2.93276906   -2.07523203    2.35466194
 C          2.74475002    0.06005700    2.06055903
 H          0.99485999   -1.67771602    0.86016601
 H          2.18605995   -2.71495199    0.06648200
 H          1.73950505    0.10570600    2.49461603
 H          2.65882397    2.07441592    1.27505898
 H          3.45767903    0.31431901    2.85257912
 H         -0.39330700   -0.67450100   -1.51235497
 H         -6.19953012    1.44948196   -2.13742399
 H         -5.36385584    2.91800809   -1.55961204
 H         -5.79308796    1.61863303   -0.40998900
