53
wb97x-d4 ma-def2-tzvp(-f) cpcm(dmso) E: -1515.685850816203, G: -1515.2758995200002
 C         -4.09932899   -0.75422299    1.83480406
 C         -3.51163411   -0.39481801    0.48306501
 H         -4.15753889   -1.84266102    1.91807604
 O         -5.37443018   -0.15696400    2.05268312
 H         -3.44055796   -0.37839600    2.62162805
 O         -3.23461103    1.00884604    0.50296998
 C         -2.20649290   -1.16465700    0.21150400
 H         -4.23632383   -0.62123603   -0.30831501
 C         -1.60142899   -0.65637201   -1.07859194
 O         -2.41397405   -2.56359100    0.18042600
 H         -1.51351702   -0.96049702    1.03177702
 C         -2.76940393    1.53810298   -0.71279401
 H         -6.01162815   -0.59067798    1.47311103
 O         -2.19484091   -1.24860501   -2.16524005
 O         -3.67872000    1.39061606   -1.76650906
 H         -2.85603905   -2.78167605   -0.65095198
 H         -1.92317295   -0.77192998   -2.96371102
 C         -4.84749699    2.20012689   -1.62433696
 C         -1.46067500    0.85338497   -1.14018404
 H         -2.58933997    2.60038590   -0.51361001
 H         -0.69638997    1.15509903   -0.42071000
 O         -1.05726695    1.27628195   -2.42959309
 H         -1.85496604    1.54320097   -2.90919900
 C          2.19599104   -0.93459702   -0.35738099
 C          2.45998502    0.43852600   -0.98801303
 C          3.47863507    1.21232498   -0.13968900
 H          2.83955693    0.30256501   -2.00559211
 H          1.52440202    1.00063396   -1.05769503
 C          2.93064690    1.39326799    1.28096497
 C          2.68450308    0.01789600    1.91324306
 H          3.64434004    1.96176302    1.88729000
 H          1.99524999    1.96336901    1.25113904
 C          1.66284502   -0.75416100    1.06797898
 H          1.46459901   -1.73561597    1.50993598
 H          0.71776301   -0.20381700    1.04414296
 C          3.51676011   -1.71993995   -0.30085701
 S          1.04583800   -1.92544901   -1.37317395
 C          4.79409695    0.42639500   -0.08821700
 H          3.65223503    2.19221091   -0.59612203
 C          4.54239988   -0.94866502    0.54172802
 H          5.19815111    0.30739701   -1.09972203
 H          5.53690910    0.97574300    0.50061297
 H          5.47630692   -1.51896906    0.57172501
 C          3.99972606   -0.76798600    1.96428001
 H          3.33693790   -2.70727396    0.13661100
 H          3.89985991   -1.86920202   -1.31604803
 H          3.83363891   -1.74615896    2.42918611
 H          2.28707600    0.14153500    2.92583704
 H          4.73246717   -0.23227300    2.57779503
 H         -0.28306299   -1.15515304   -1.10147595
 H         -5.42402411    2.08321190   -2.54088211
 H         -4.56910706    3.25121689   -1.49387002
 H         -5.44494104    1.87146199   -0.77002800
