53
wb97x-d4 ma-def2-tzvp(-f) cpcm(dmso) E: -1515.685998669322, G: -1515.2758151100002
 C         -3.79236794   -2.33861589    0.88721699
 C         -3.43160701   -1.01560605    0.23390099
 H         -4.64669895   -2.17081094    1.54674900
 O         -2.74756503   -2.87968612    1.69194305
 H         -4.09050179   -3.04658198    0.10967600
 O         -3.26252794   -0.04640300    1.27347600
 C         -2.14321208   -1.08914804   -0.60332298
 H         -4.26490879   -0.72391701   -0.41647500
 C         -1.81279194    0.29583001   -1.10942101
 O         -2.24766588   -2.03726792   -1.64775300
 H         -1.33326900   -1.42162001    0.04799700
 C         -3.08425689    1.27689099    0.81081802
 H         -2.15440297   -3.38468599    1.12507105
 O         -2.53331709    0.62386602   -2.22914696
 O         -4.15521288    1.72807097    0.04009500
 H         -2.87687492   -1.70116198   -2.29959893
 H         -2.54726291    1.59168994   -2.29939795
 C         -5.36093521    1.86994004    0.79026002
 C         -1.79692996    1.35175002   -0.02235200
 H         -2.97957110    1.88492298    1.71644104
 H         -0.97395003    1.13214803    0.66369098
 O         -1.67746997    2.64943290   -0.57928503
 H         -0.75183600    2.79493999   -0.81420201
 C          2.07616901    0.11173800   -1.05155802
 C          1.69055200   -1.00568295   -0.07599100
 C          2.78751612   -1.17214894    0.98513103
 H          0.74598998   -0.75496900    0.41499299
 H          1.54428697   -1.94057703   -0.62587702
 C          4.11151695   -1.53176200    0.30170900
 C          4.50466394   -0.41271600   -0.66848302
 H          4.89654398   -1.66662300    1.05384600
 H          4.00791502   -2.47853994   -0.24014200
 C          3.40755105   -0.25080299   -1.72962201
 H          3.68483090    0.53526199   -2.44010997
 H          3.28877902   -1.18218994   -2.29245496
 C          2.25151706    1.42450500   -0.27966201
 S          0.84274000    0.28104001   -2.38987994
 C          2.94763207    0.14168200    1.75750506
 H          2.49698901   -1.97283995    1.67287505
 C          3.34358191    1.25978899    0.78639102
 H          2.00742793    0.39673099    2.25956511
 H          3.71458292    0.03024700    2.53185797
 H          3.45325303    2.20242310    1.33235896
 C          4.66857481    0.90104097    0.10461700
 H          2.51942396    2.22453308   -0.97664601
 H          1.30609798    1.70116794    0.19732800
 H          4.96689701    1.70344698   -0.57942599
 H          5.44457388   -0.66846699   -1.16800201
 H          5.46023417    0.79707098    0.85466999
 H         -0.48310301    0.23921201   -1.56330097
 H         -6.09069204    2.33350801    0.12747900
 H         -5.19623995    2.51248908    1.66226006
 H         -5.73466015    0.89746100    1.12218904
