53
wb97x-d4 ma-def2-tzvp(-f) cpcm(dmso) E: -1515.686994211986, G: -1515.27579497
 C         -3.57122993    0.06852700    2.22930694
 C         -3.29977798    0.08929200    0.72991002
 H         -2.66384602    0.36182001    2.77240801
 O         -4.04279804   -1.20001400    2.66833091
 H         -4.35535622    0.79513299    2.44980693
 O         -3.15517998    1.45896697    0.35602999
 C         -2.01029396   -0.65026200    0.35428199
 H         -4.14833021   -0.36271799    0.20580800
 C         -1.75521004   -0.48605400   -1.13101399
 O         -2.17514396   -2.02834010    0.67751598
 H         -1.18341303   -0.20882300    0.91945499
 C         -3.03742504    1.67072201   -1.03783202
 H         -3.41608596   -1.86265194    2.34597111
 O         -2.49595904   -1.32065201   -1.92680502
 O         -4.14956093    1.21845901   -1.74835896
 H         -1.30224204   -2.43345594    0.76333499
 H         -2.65067506   -2.13850188   -1.42661703
 C         -5.31238413    2.02208400   -1.54382598
 C         -1.78974700    0.95689702   -1.58980501
 H         -2.92487407    2.75417995   -1.15119100
 H         -0.92787898    1.46773803   -1.15744305
 O         -1.69507504    1.09335601   -2.98984504
 H         -2.51721001    0.75529599   -3.36941099
 C          2.09495592   -0.86151803   -0.60279202
 C          3.49673104   -1.10409999   -1.18770301
 C          4.56164217   -0.53285199   -0.24107800
 H          3.65609193   -2.17871690   -1.32726002
 H          3.57143402   -0.62576997   -2.16944599
 C          4.33687496    0.97445101   -0.07523100
 C          2.94340897    1.22075403    0.51251298
 H          5.10192108    1.39624095    0.58589399
 H          4.42803192    1.47556901   -1.04545701
 C          1.87924504    0.64586401   -0.43181801
 H          0.88611299    0.82929897   -0.01191000
 H          1.92732704    1.13821602   -1.40816402
 C          1.99732101   -1.54934204    0.76331300
 S          0.90720898   -1.57360196   -1.79653001
 C          4.45413303   -1.22078204    1.12409401
 H          5.55168486   -0.71360999   -0.67180401
 C          3.05946803   -0.97438502    1.70995998
 H          4.63088894   -2.29689789    1.01720798
 H          5.21982479   -0.82803297    1.80209601
 H          2.97587609   -1.47058904    2.68241000
 C          2.83297300    0.53269500    1.87841201
 H          0.99864602   -1.39461505    1.18339705
 H          2.14258289   -2.62707400    0.64034200
 H          1.84309697    0.71652502    2.31113100
 H          2.77403688    2.29650092    0.62505400
 H          3.57615209    0.94813699    2.56778407
 H         -0.42809999   -0.90189302   -1.32552302
 H         -6.08896399    1.62443101   -2.19594193
 H         -5.10561085    3.06433105   -1.80918097
 H         -5.64529800    1.96977103   -0.50378299
