53
wb97x-d4 ma-def2-tzvp(-f) cpcm(dmso) E: -1515.685895832529, G: -1515.27576268
 C         -2.89162493    2.36617899    1.50760305
 C         -2.95720911    1.00325096    0.84538001
 H         -2.57121301    2.24115801    2.54525709
 O         -4.12980509    3.06736898    1.43760705
 H         -2.15448499    2.98186111    0.98621500
 O         -3.14071798    1.22314703   -0.55685401
 C         -1.65716100    0.20639700    1.05682695
 H         -3.80339408    0.43480200    1.24958897
 C         -1.74513602   -1.07898498    0.26552001
 O         -1.39528501   -0.03604400    2.42509294
 H         -0.82948899    0.80669802    0.66931897
 C         -3.34088707    0.05847900   -1.31757605
 H         -4.76062107    2.61969090    2.01362205
 O         -2.45588899   -2.03365493    0.94861400
 O         -4.48428488   -0.65687102   -0.94215798
 H         -1.99851096   -0.72783899    2.72765088
 H         -2.67083907   -2.74926400    0.33086401
 C         -5.70276022    0.00549500   -1.28724301
 C         -2.14107299   -0.89454800   -1.18914294
 H         -3.43497491    0.40440699   -2.35286808
 H         -1.30437100   -0.43268299   -1.71749306
 O         -2.41695690   -2.14728689   -1.79064000
 H         -3.37910104   -2.25825095   -1.79317403
 C          2.11855793   -1.15113902    0.01251000
 C          3.46772408   -1.85379601   -0.20942400
 C          4.58641481   -0.80650997   -0.30374199
 H          3.66604590   -2.54122591    0.61964601
 H          3.42746902   -2.44407892   -1.13072705
 C          4.30713606    0.13429400   -1.48090398
 C          2.96480203    0.84032297   -1.26122296
 H          5.11091518    0.87402999   -1.56484103
 H          4.28282881   -0.43356100   -2.41767597
 C          1.84789300   -0.20875201   -1.16536498
 H          0.88549501    0.29262000   -1.02633202
 H          1.78931105   -0.78872401   -2.09165311
 C          2.18607092   -0.34323701    1.31405902
 S          0.85796797   -2.46933198    0.11651200
 C          4.64269686    0.00322400    0.99722898
 H          5.53968000   -1.32162905   -0.46006200
 C          3.29990005    0.70783800    1.21710598
 H          4.86052895   -0.65963298    1.84206402
 H          5.44984913    0.74194402    0.94176400
 H          3.33136702    1.28144598    2.14911389
 C          3.01534700    1.64818001    0.04019500
 H          1.22475100    0.14369200    1.49850297
 H          2.37758207   -1.02076805    2.15203905
 H          2.06186509    2.16535997    0.19687299
 H          2.75444007    1.50734794   -2.10341001
 H          3.79732990    2.41283894   -0.02427400
 H         -0.43690300   -1.59790301    0.19602400
 H         -5.71881723    0.23855500   -2.35715604
 H         -5.81901217    0.92650098   -0.71030301
 H         -6.51344395   -0.68141001   -1.04855895
