53
wb97x-d4 ma-def2-tzvp(-f) cpcm(dmso) E: -1515.688952022004, G: -1515.27851117
 C         -4.65041685   -1.93164694    0.48304901
 C         -3.75886512   -0.76527703    0.10432900
 H         -4.33201313   -2.82158995   -0.05984600
 O         -6.00853109   -1.69228399    0.13070400
 H         -4.55564690   -2.12207103    1.55927205
 O         -4.20259714    0.34934801    0.88337499
 C         -2.28643894   -1.03769600    0.41782299
 H         -3.87133598   -0.54462999   -0.96246898
 C         -1.47953498    0.22988200    0.19013201
 O         -1.82404304   -2.06240797   -0.45145500
 H         -2.19704199   -1.33552897    1.46794498
 C         -3.55996108    1.57187700    0.58232898
 H         -6.29005480   -0.89259303    0.59203303
 O         -1.12800300    0.44424599   -1.11471701
 O         -3.72721004    1.96059895   -0.74723703
 H         -1.04440904   -2.47099710   -0.05312300
 H         -1.07559299   -0.42671600   -1.54303098
 C         -5.06947279    2.33261991   -1.06028998
 C         -2.05319500    1.45630205    0.86731797
 H         -4.01421881    2.30582690    1.25699604
 H         -1.95047498    1.32014096    1.94645798
 O         -1.36497295    2.64016199    0.53020197
 H         -1.52274799    2.80968904   -0.40812299
 C          2.19283700   -0.31209499    0.81679797
 C          2.28951001    1.07845294    0.17804800
 C          3.51679397    1.13957095   -0.74160397
 H          1.37991297    1.28394103   -0.39366499
 H          2.36550689    1.83591199    0.96450400
 C          4.78212214    0.87177598    0.08049600
 C          4.69266319   -0.51953298    0.71844798
 H          5.66672897    0.92986703   -0.56335801
 H          4.89141083    1.63509297    0.85907102
 C          3.46409607   -0.58332300    1.63626504
 H          3.39564800   -1.57048595    2.10551691
 H          3.55270505    0.16019499    2.43526912
 C          2.07292295   -1.37450004   -0.28196800
 S          0.78702098   -0.40602300    1.97726297
 C          3.38531899    0.07945100   -1.84122896
 H          3.57425499    2.13520789   -1.19354701
 C          3.29841495   -1.31200099   -1.20285702
 H          2.48861289    0.27259299   -2.44088101
 H          4.24843788    0.12901600   -2.51423502
 H          3.19694209   -2.07177711   -1.98458898
 C          4.56462002   -1.57932997   -0.38161400
 H          1.99466598   -2.36469507    0.17805500
 H          1.16016197   -1.20610797   -0.86091697
 H          4.51761103   -2.57907605    0.06450800
 H          5.59058523   -0.71146601    1.31451702
 H          5.44596100   -1.55007303   -1.03180099
 H         -0.33100501   -0.02753500    0.94702101
 H         -5.73724413    1.46835601   -1.00707304
 H         -5.05903292    2.72335410   -2.07703590
 H         -5.42140579    3.10797811   -0.37108001
