53
wb97x-d4 ma-def2-tzvp(-f) cpcm(dmso) E: -1515.686121095708, G: -1515.27572117
 C         -4.66182518   -1.78368199   -0.69218999
 C         -3.74416494   -0.64806598   -0.28057000
 H         -4.23455620   -2.28478193   -1.56461203
 O         -5.99079084   -1.34301305   -0.95690602
 H         -4.72972918   -2.50448704    0.12633801
 O         -4.20782995   -0.16253801    0.98354399
 C         -2.28741503   -1.11808395   -0.12767699
 H         -3.79032302    0.15269700   -1.02860200
 C         -1.45951700    0.03330500    0.39821899
 O         -1.76336503   -1.63704002   -1.33427298
 H         -2.26531005   -1.92793000    0.60749298
 C         -3.53566098    0.97529203    1.46125996
 H         -5.97979212   -0.83619201   -1.77723396
 O         -1.09200799    0.88845098   -0.60728902
 O         -3.64779997    2.08156490    0.60969198
 H         -1.55626297   -0.89518797   -1.91753805
 H         -0.77593499    1.71247005   -0.20650800
 C         -4.96962976    2.62137103    0.55123597
 C         -2.03467989    0.69307101    1.63843906
 H         -3.99582696    1.19523501    2.43091011
 H         -1.93108296   -0.00247400    2.47497296
 O         -1.32432401    1.87906301    1.94706500
 H         -1.84076095    2.62097907    1.59964395
 C          2.20953393   -0.77078199    0.55125898
 C          2.43623495    0.72347897    0.81353700
 C          3.62364888    1.22402501   -0.02076500
 H          1.53344798    1.28529203    0.55726302
 H          2.63001299    0.87893802    1.87948799
 C          4.88439322    0.44716299    0.37698200
 C          4.66622686   -1.04763603    0.11699200
 H          5.74330091    0.80466503   -0.20162199
 H          5.10902405    0.61482298    1.43635404
 C          3.47535396   -1.54503798    0.94847500
 H          3.31978512   -2.61562300    0.77909303
 H          3.67649603   -1.40105700    2.01548791
 C          1.93247902   -0.99681097   -0.94006699
 S          0.84230602   -1.41593802    1.57645404
 C          3.33090091    1.00232506   -1.50905204
 H          3.77137089    2.29153204    0.17245400
 C          3.12001109   -0.49322399   -1.77199900
 H          2.43616796    1.56339705   -1.80180299
 H          4.16516113    1.37447405   -2.11397505
 H          2.90632796   -0.65561998   -2.83346105
 C          4.38075876   -1.26904404   -1.37303495
 H          1.76921999   -2.06406903   -1.12039101
 H          1.02125502   -0.46823001   -1.23001802
 H          4.24157476   -2.33726406   -1.57407796
 H          5.55991411   -1.60835505    0.40959001
 H          5.23516703   -0.93045098   -1.96951604
 H         -0.30671799   -0.60776198    0.90099400
 H         -5.65711021    1.91139901    0.08443500
 H         -4.91301298    3.52658010   -0.05168500
 H         -5.32464314    2.86878896    1.55719495
