53
wb97x-d4 ma-def2-tzvp(-f) cpcm(dmso) E: -1515.686333800775, G: -1515.27571807
 C         -5.09779215   -1.61848402    0.54566097
 C         -4.02716017   -0.64148802    0.07358700
 H         -4.70654678   -2.21944594    1.37634206
 O         -5.56902218   -2.44915009   -0.50850999
 H         -5.95324183   -1.04553902    0.90823102
 O         -3.87315202    0.32638001    1.11008406
 C         -2.67542005   -1.32148898   -0.16616900
 H         -4.36151218   -0.16094600   -0.85194999
 C         -1.61625195   -0.27756801   -0.48016900
 O         -2.81998801   -2.21868300   -1.26536000
 H         -2.39114189   -1.85932803    0.74427599
 C         -3.00811100    1.39403701    0.77468097
 H         -4.79282999   -2.83930111   -0.93362600
 O         -1.59666204    0.13381800   -1.78537297
 O         -3.43001509    2.09564996   -0.35503301
 H         -2.15108705   -2.91220999   -1.19650197
 H         -1.90837598   -0.60916901   -2.32814407
 C         -4.63795996    2.82746601   -0.14652701
 C         -1.58700502    0.87006003    0.50914800
 H         -3.00681210    2.04595590    1.65501404
 H         -1.21513605    0.48275599    1.46053398
 O         -0.72259700    1.90974998    0.11144800
 H         -1.09678698    2.30646110   -0.68633598
 C          2.11930704   -0.93817103    0.09649300
 C          3.36274910   -1.82934201    0.24702300
 C          4.62724876   -0.95861799    0.22059800
 H          3.30661893   -2.38306689    1.19011605
 H          3.39312911   -2.55942297   -0.56837201
 C          4.69654894   -0.19895899   -1.10940695
 C          3.45943308    0.69432002   -1.25327897
 H          5.60580206    0.41138700   -1.14251900
 H          4.74527693   -0.90699399   -1.94433606
 C          2.19674706   -0.17852600   -1.23226404
 H          1.30584800    0.44475499   -1.35036004
 H          2.21710396   -0.89387399   -2.06049609
 C          2.08264899    0.06068600    1.25918102
 S          0.66945899   -2.04893899    0.13938101
 C          4.58354712    0.04437700    1.37889504
 H          5.50430393   -1.60564101    0.32324201
 C          3.34420395    0.93436497    1.23600805
 H          4.55342722   -0.48864201    2.33583498
 H          5.49029589    0.65939599    1.37313497
 H          3.30145788    1.64546001    2.06737494
 C          3.40930796    1.69540405   -0.09375000
 H          1.19398904    0.68972099    1.17484200
 H          2.01923108   -0.48649099    2.20508099
 H          2.53234410    2.34394503   -0.19717000
 H          3.50306296    1.23374903   -2.20512509
 H          4.29745388    2.33671093   -0.11501500
 H         -0.44915301   -0.99869502   -0.22359300
 H         -4.80342722    3.42408204   -1.04267800
 H         -4.53980780    3.48675895    0.72270697
 H         -5.48355293    2.15073490    0.00314300
