53
wb97x-d4 ma-def2-tzvp(-f) cpcm(dmso) E: -1515.685830127912, G: -1515.2757013100002
 C         -3.43498302   -2.48103499   -0.17060600
 C         -3.18690991   -0.98459500   -0.22221699
 H         -2.75137496   -2.97832108   -0.86350101
 O         -4.78845310   -2.82192993   -0.45662200
 H         -3.23026896   -2.84120989    0.84060502
 O         -3.92932105   -0.39793599    0.85039401
 C         -1.69489300   -0.64981502   -0.04558900
 H         -3.53612304   -0.58450198   -1.18177497
 C         -1.53650796    0.85416001    0.03808800
 O         -0.91098398   -1.20750999   -1.08210695
 H         -1.35337698   -1.09206402    0.89481699
 C         -3.91005993    1.00600898    0.88086998
 H         -4.94601107   -2.66030192   -1.39417100
 O         -1.49483895    1.41819406   -1.21151400
 O         -4.44890118    1.59269702   -0.27035400
 H         -1.02702296   -0.66254503   -1.87152803
 H         -1.60200906    2.37691593   -1.11492097
 C         -5.85958576    1.40335500   -0.39443099
 C         -2.47339511    1.52903199    1.02776504
 H         -4.50365305    1.28290200    1.75905597
 H         -2.13912702    1.27577305    2.03715897
 O         -2.42280006    2.93654108    0.87691700
 H         -3.18539596    3.19387603    0.33799800
 C          2.23274803    0.61610502    0.66860998
 C          2.05874705   -0.86807299    1.01065099
 C          3.19516993   -1.68427598    0.37959900
 H          2.06355810   -0.99171400    2.09825802
 H          1.09317696   -1.21897101    0.63770199
 C          3.16814590   -1.50215995   -1.14265299
 C          3.35598111   -0.01950200   -1.48389304
 H          3.96538305   -2.09556890   -1.60408497
 H          2.21500993   -1.86186397   -1.54563904
 C          2.22033811    0.79847002   -0.85392702
 H          2.34027195    1.85973799   -1.09408402
 H          1.25696695    0.47227499   -1.25454295
 C          3.58112693    1.10474801    1.22018099
 S          0.93713701    1.62925005    1.46147704
 C          4.53846502   -1.19413602    0.93254799
 H          3.05698895   -2.74149394    0.62860501
 C          4.72082090    0.28939000    0.59258097
 H          4.57079411   -1.33691597    2.01855397
 H          5.35794401   -1.77823901    0.49921799
 H          5.67446089    0.64689600    0.99405998
 C          4.69977713    0.46758899   -0.92975098
 H          3.70892596    2.16759396    0.98999798
 H          3.59647202    0.99495697    2.30978894
 H          4.84983492    1.52226698   -1.18639100
 H          3.33341503    0.11525200   -2.57019305
 H          5.51988077   -0.10121800   -1.38190198
 H         -0.29763699    1.10720897    0.64855301
 H         -6.37257099    1.76583600    0.50256401
 H         -6.09575701    0.34753799   -0.54991001
 H         -6.17958689    1.98132896   -1.26030898
