53
wb97x-d4 ma-def2-tzvp(-f) cpcm(dmso) E: -1515.684589450074, G: -1515.2757004900002
 C         -4.66693306   -1.71202803   -1.00431395
 C         -3.75534892   -0.61506498   -0.50533998
 H         -4.23016500   -2.14599299   -1.90811503
 O         -5.94892979   -1.14916801   -1.28130603
 H         -4.74259710   -2.49200511   -0.23736501
 O         -4.22737122   -0.22115900    0.78696299
 C         -2.29878902   -1.10220003   -0.39331701
 H         -3.79805589    0.23633499   -1.19377303
 C         -1.46918595   -0.02486100    0.27252600
 O         -1.76570499   -1.46599495   -1.65168095
 H         -2.27852893   -1.99657595    0.23594899
 C         -3.54145193    0.87846798    1.34684002
 H         -6.51950121   -1.85615098   -1.60239303
 O         -1.07182002    0.93621701   -0.62117201
 O         -3.60890698    2.02550292    0.55740499
 H         -1.58537900   -0.65508503   -2.14587903
 H         -0.87954801    1.74731505   -0.12541100
 C         -4.92780399    2.56493092    0.46775901
 C         -2.06641603    0.49592099    1.55822504
 H         -4.02820206    1.05141497    2.31477809
 H         -2.05857706   -0.31809899    2.29193401
 O         -1.26254594    1.58083296    1.98137498
 H         -1.69740999    2.03323197    2.71438289
 C          2.19489098   -0.80832601    0.51516598
 C          3.45956492   -1.57408094    0.93294102
 C          4.68704987   -0.95152003    0.25296500
 H          3.57233191   -1.53302395    2.02156305
 H          3.36415291   -2.62658811    0.64623702
 C          4.52387905   -1.03053200   -1.26933706
 C          3.26421404   -0.26419401   -1.68975699
 H          5.40477705   -0.60317999   -1.76105201
 H          4.44745779   -2.07745504   -1.58385301
 C          2.03939009   -0.88854301   -1.00785697
 H          1.13072503   -0.36210001   -1.31202805
 H          1.93247795   -1.93624997   -1.30630100
 C          2.33429503    0.65817302    0.94011700
 S          0.78566903   -1.60995102    1.35607803
 C          4.81824589    0.51534498    0.67806602
 H          5.57995987   -1.50653803    0.55833697
 C          3.55920792    1.28250206    0.25774500
 H          4.95040894    0.58064598    1.76391697
 H          5.70330095    0.96180600    0.21154600
 H          3.64453006    2.32947111    0.56668597
 C          3.39097095    1.20376301   -1.26432502
 H          1.43063796    1.20930398    0.66595000
 H          2.43751192    0.71295702    2.02850294
 H          2.49848008    1.76101100   -1.57093000
 H          3.13887000   -0.32510501   -2.77567792
 H          4.25286293    1.66392398   -1.76006496
 H         -0.34346700   -0.72312200    0.72539097
 H         -4.84287596    3.51785302   -0.05314200
 H         -5.34211493    2.72934198    1.46868503
 H         -5.58823109    1.89862001   -0.09364000
