53
wb97x-d4 ma-def2-tzvp(-f) cpcm(dmso) E: -1515.685934925915, G: -1515.27564118
 C         -3.34958792   -2.05689692    1.32857800
 C         -3.16037893   -0.89918399    0.37480900
 H         -4.30307817   -1.92318296    1.85126805
 O         -2.26710200   -2.10109305    2.25584888
 H         -3.39709902   -2.97988296    0.74286699
 O         -3.26477909    0.31808999    1.12283397
 C         -1.79787600   -0.92036998   -0.33978701
 H         -3.96162105   -0.94778502   -0.37130001
 C         -1.71210396    0.29522800   -1.23208106
 O         -1.59074295   -2.12242889   -1.05412495
 H         -1.01832604   -0.85742199    0.42101800
 C         -3.28041697    1.48508000    0.33919400
 H         -2.41070795   -2.85219502    2.84173393
 O         -2.39082003    0.10087000   -2.40878510
 O         -4.37065887    1.54511702   -0.53791898
 H         -2.15067697   -2.10599089   -1.84120095
 H         -2.49393702    0.95780498   -2.84968901
 C         -5.62085915    1.73938704    0.12586799
 C         -2.00549603    1.60208702   -0.51448703
 H         -3.32776189    2.31195903    1.05625403
 H         -1.17878604    1.81263697    0.16717800
 O         -2.11123800    2.67100000   -1.43755102
 H         -3.05490494    2.81463599   -1.60178697
 C          2.15202594    0.18066600   -0.97930902
 C          2.07155108   -1.30760896   -0.62281001
 C          3.09600592   -1.63768995    0.47131699
 H          1.06320798   -1.55125797   -0.27782801
 H          2.26705909   -1.90652895   -1.51788902
 C          4.50553608   -1.32050502   -0.04081200
 C          4.59652805    0.16784000   -0.39771399
 H          5.24801207   -1.56533098    0.72672999
 H          4.72977877   -1.93159699   -0.92231500
 C          3.56771803    0.49858499   -1.48787999
 H          3.63198900    1.55829203   -1.75604701
 H          3.77510190   -0.08634600   -2.39023805
 C          1.86832201    1.02279997    0.26866800
 S          1.00924206    0.60068297   -2.34234905
 C          2.80077291   -0.79295897    1.71766901
 H          3.02335906   -2.70133090    0.72019202
 C          2.89619493    0.69505101    1.36009395
 H          1.79854798   -1.02326298    2.09649897
 H          3.51686096   -1.03338397    2.51114511
 H          2.68062496    1.30252397    2.24517989
 C          4.30590582    1.01099598    0.84806597
 H          1.90959406    2.08586907    0.01186100
 H          0.86148900    0.80732000    0.63860798
 H          4.38672495    2.07687402    0.60661501
 H          5.59797287    0.39741200   -0.77576399
 H          5.04419613    0.79266697    1.62753999
 H         -0.35837299    0.39860401   -1.62236798
 H         -5.88039112    0.86371601    0.72633803
 H         -6.37028885    1.88579595   -0.65066803
 H         -5.57630777    2.62464190    0.76873499
