53
wb97x-d4 ma-def2-tzvp(-f) cpcm(dmso) E: -1515.685347637814, G: -1515.27559507
 C         -3.68947911   -2.33094192    0.78442401
 C         -3.37216997   -0.98133600    0.16190200
 H         -4.57578421   -2.21830106    1.41829598
 O         -2.59872699   -2.85926390    1.52954102
 H         -3.91701102   -3.05383110   -0.00045700
 O         -3.11493802   -0.09094900    1.24805498
 C         -2.15423703   -1.02964401   -0.77094102
 H         -4.24849892   -0.64058501   -0.40445900
 C         -1.75742602    0.37894699   -1.18431103
 O         -2.40190697   -1.82377899   -1.92352402
 H         -1.32477105   -1.48528397   -0.22785400
 C         -2.89469194    1.25400305    0.87237400
 H         -2.42119789   -2.25315189    2.25912309
 O         -2.46159005    0.89032501   -2.24397993
 O         -3.97698307    1.81201804    0.19347300
 H         -3.35068202   -1.85193205   -2.10142493
 H         -2.62181902    0.16652600   -2.86919808
 C         -5.11965609    2.01171589    1.02629697
 C         -1.65317702    1.34923506   -0.02602200
 H         -2.71575689    1.78574598    1.81332195
 H         -0.80971098    1.04333603    0.59589601
 O         -1.40535498    2.67452407   -0.43856800
 H         -2.18061209    2.97603703   -0.93044102
 C          2.08059311    0.01767200   -1.11093199
 C          1.65010703   -1.01909196   -0.06734800
 C          2.71384907   -1.12377596    1.03358400
 H          0.69684100   -0.72187299    0.37824601
 H          1.50260496   -1.98917198   -0.55210602
 C          4.04917383   -1.55327201    0.41520500
 C          4.48789310   -0.51411098   -0.62277299
 H          4.81130791   -1.64476299    1.19685400
 H          3.94310403   -2.53555298   -0.05876900
 C          3.42265296   -0.41347399   -1.72384596
 H          3.73214102    0.31545901   -2.48036599
 H          3.30497694   -1.38138998   -2.22179008
 C          2.26032495    1.38224304   -0.43410999
 S          0.88174403    0.11148200   -2.48726296
 C          2.87325096    0.24203300    1.71120095
 H          2.39154506   -1.86722803    1.76973796
 C          3.31780005    1.27880502    0.67356002
 H          1.92271399    0.54786599    2.16282201
 H          3.61413598    0.17664500    2.51567411
 H          3.42948699    2.25700402    1.15244699
 C          4.65428782    0.84890503    0.05854300
 H          2.56654191    2.12059999   -1.18166697
 H          1.30788803    1.71596801   -0.01289400
 H          4.98693085    1.59508002   -0.67170799
 H          5.43622684   -0.82015699   -1.07593906
 H          5.42262983    0.78526503    0.83692002
 H         -0.44951299    0.25287601   -1.66932404
 H         -4.85186291    2.61065102    1.90343904
 H         -5.53678989    1.05518305    1.35255694
 H         -5.85640383    2.54670501    0.42852101
