53
wb97x-d4 ma-def2-tzvp(-f) cpcm(dmso) E: -1515.688430399229, G: -1515.27826262
 C         -3.64453602   -2.34526110    0.86471599
 C         -3.34253502   -0.99139702    0.25270599
 H         -3.80816293   -3.07446194    0.07139800
 O         -4.83013296   -2.31216788    1.65226901
 H         -2.78618312   -2.66612911    1.46757901
 O         -3.08528495   -0.10854900    1.34839106
 C         -2.11350608   -1.03084397   -0.66031998
 H         -4.20979595   -0.63946301   -0.31597799
 C         -1.75773096    0.38527700   -1.08110905
 O         -2.43590498   -1.80615497   -1.80719602
 H         -1.27876794   -1.47118604   -0.10795800
 C         -2.88353896    1.24260104    0.98623198
 H         -4.69602013   -1.65721297    2.34845304
 O         -2.51176500    0.85774398   -2.12297010
 O         -3.97883391    1.80179203    0.32868701
 H         -1.61354899   -2.12582898   -2.20029497
 H         -2.77371907    0.08847700   -2.65645099
 C         -5.11287594    1.97799504    1.17816305
 C         -1.65306103    1.36253500    0.07087600
 H         -2.69651890    1.76492202    1.93099594
 H         -0.79249102    1.07874000    0.68001699
 O         -1.44451201    2.69170403   -0.35173899
 H         -2.24834991    2.98104692   -0.80381799
 C          2.07226610   -0.00740100   -1.17513704
 C          1.68431497   -1.02241695   -0.09516300
 C          2.79286408   -1.10936701    0.96240598
 H          0.75149500   -0.71221501    0.38364899
 H          1.51407897   -2.00113106   -0.55456001
 C          4.10016394   -1.55385602    0.29603299
 C          4.49618006   -0.53596997   -0.77956700
 H          4.89486790   -1.63233304    1.04599595
 H          3.97244692   -2.54466105   -0.15426300
 C          3.38572407   -0.45417199   -1.83673298
 H          3.66414809    0.25879699   -2.61994910
 H          3.24490309   -1.43153095   -2.30969906
 C          2.28206897    1.36967003   -0.53347403
 S          0.81348997    0.06340300   -2.49712110
 C          2.98356891    0.26877999    1.60609698
 H          2.50027800   -1.83767402    1.72557104
 C          3.38478589    1.28427398    0.53041899
 H          2.05403304    0.58579999    2.09232712
 H          3.75848889    0.21733400    2.37882996
 H          3.51845407    2.27116108    0.98526400
 C          4.69327116    0.83954298   -0.13257200
 H          2.55855489    2.09252095   -1.30731595
 H          1.34726596    1.71235299   -0.08047100
 H          4.99626923    1.57102001   -0.89002299
 H          5.42419720   -0.85309303   -1.26588595
 H          5.49332905    0.78862298    0.61413598
 H         -0.46468201    0.27482000   -1.61444497
 H         -5.51506090    1.01266503    1.49734998
 H         -5.86311722    2.51183891    0.59626198
 H         -4.84086418    2.56904292    2.05939198
