53
wb97x-d4 ma-def2-tzvp(-f) cpcm(dmso) E: -1515.685825057977, G: -1515.2755926300001
 C         -3.31384993    0.06378200    2.41419005
 C         -3.15238595   -0.00986900    0.90727502
 H         -3.14627290   -0.93037999    2.83669496
 O         -4.58535004    0.57480103    2.80443406
 H         -2.56450295    0.74696499    2.82164693
 O         -3.14288497    1.33356905    0.41420400
 C         -1.83079600   -0.69301301    0.50874698
 H         -3.99335790   -0.56307399    0.47206199
 C         -1.68895602   -0.62090099   -0.99479902
 O         -1.74784398   -2.02232599    0.98360801
 H         -1.01150095   -0.13515399    0.97006899
 C         -3.11683011    1.45152199   -0.98584801
 H         -5.25195312   -0.08923900    2.59297204
 O         -2.41668391   -1.60846996   -1.61037505
 O         -4.23211002    0.87811702   -1.60887897
 H         -2.33223891   -2.57183790    0.44484600
 H         -2.47451401   -1.39925599   -2.55501199
 C         -5.44282913    1.59867704   -1.36960399
 C         -1.86692595    0.77228498   -1.57170701
 H         -3.08598709    2.52882409   -1.18271995
 H         -1.00538504    1.37739599   -1.28163803
 O         -1.92845500    0.72516400   -2.98587990
 H         -2.86453700    0.74902701   -3.23306489
 C          2.17290211   -0.79249698   -0.69166601
 C          3.57472205   -1.01677001   -1.28310096
 C          4.63713217   -0.46548200   -0.32194501
 H          3.73716092   -2.08713508   -1.44854295
 H          3.64828205   -0.51405901   -2.25288296
 C          4.40820885    1.03627396   -0.11703800
 C          3.01320291    1.26331699    0.47516000
 H          5.17154121    1.44224095    0.55589998
 H          4.49905300    1.56313097   -1.07355797
 C          1.95412505    0.71069801   -0.48745000
 H          0.95602900    0.88768202   -0.07586300
 H          2.01188588    1.22294998   -1.45296705
 C          2.07699203   -1.51663101    0.65584099
 S          0.98579103   -1.47871602   -1.89814997
 C          4.53149223   -1.18802094    1.02551496
 H          5.62796402   -0.63218302   -0.75657302
 C          3.13597989   -0.96097398    1.61719298
 H          4.71090603   -2.26063609    0.89122802
 H          5.29645586   -0.81068498    1.71303201
 H          3.05402899   -1.48142195    2.57705903
 C          2.90307403    0.54061198    1.82299101
 H          1.07652903   -1.38295996    1.07752097
 H          2.23021889   -2.58947992    0.50283903
 H          1.91171598    0.70916599    2.25852799
 H          2.84137893    2.33549595    0.61545902
 H          3.64342093    0.94173402    2.52382708
 H         -0.35015801   -0.95238900   -1.28682899
 H         -5.33177614    2.64249611   -1.68145704
 H         -5.71373987    1.55999303   -0.31139299
 H         -6.21837378    1.11764002   -1.96389794
