53
wb97x-d4 ma-def2-tzvp(-f) cpcm(dmso) E: -1515.685480139794, G: -1515.27557109
 C         -3.44162703   -0.60448700   -2.29920006
 C         -3.16235209    0.06166600   -0.96494001
 H         -2.72023201   -0.24065100   -3.03520703
 O         -4.77774382   -0.39026499   -2.74627209
 H         -3.31728697   -1.68492401   -2.19301796
 O         -3.95998192   -0.60586703    0.01657200
 C         -1.67641103   -0.05589800   -0.57766098
 H         -3.43952894    1.12153995   -1.01462305
 C         -1.49081504    0.50877601    0.81410199
 O         -0.83992702    0.57564503   -1.52629399
 H         -1.41105902   -1.11684597   -0.56539202
 C         -3.90124989   -0.04609300    1.30406404
 H         -4.86195183    0.53521699   -3.00441909
 O         -1.38594401    1.87641704    0.78480601
 O         -4.35250521    1.27837598    1.35417604
 H         -0.89498800    1.53020799   -1.38685203
 H         -1.45849597    2.20755100    1.69265103
 C         -5.75845194    1.40683496    1.13461602
 C         -2.46155810   -0.05543600    1.83944201
 H         -4.53762484   -0.68613398    1.92517996
 H         -2.19065499   -1.09841502    2.02161694
 O         -2.36585903    0.65201098    3.06235790
 H         -3.07480407    1.31187201    3.06753993
 C          2.21567798   -0.41397500    0.87342298
 C          3.55332804   -0.79676998    1.52653098
 C          4.66259623   -0.79749298    0.46443900
 H          3.79355502   -0.08166500    2.32023191
 H          3.47084498   -1.78845596    1.98383105
 C          4.32386684   -1.81520796   -0.63063800
 C          2.99031210   -1.43586302   -1.28434396
 H          5.11986399   -1.82994294   -1.38336802
 H          4.25775814   -2.82112503   -0.20109300
 C          1.88498795   -1.43585002   -0.22039101
 H          0.92620802   -1.18591905   -0.68037999
 H          1.79192996   -2.42934895    0.22947200
 C          2.34245396    0.98423600    0.25809100
 S          0.95062202   -0.44033301    2.18863010
 C          4.77887106    0.59919000   -0.15723500
 H          5.60920095   -1.06920397    0.94256097
 C          3.44541097    0.98087299   -0.80970299
 H          5.04220915    1.33277404    0.61301601
 H          5.57874489    0.60715699   -0.90597099
 H          3.52123404    1.98193502   -1.24681306
 C          3.09890103   -0.03663300   -1.90236294
 H          1.38839900    1.27755702   -0.18713599
 H          2.58093810    1.70633399    1.04544902
 H          2.15212798    0.23587900   -2.38102102
 H          2.73893404   -2.16450310   -2.06195998
 H          3.87376499   -0.02932400   -2.67707396
 H         -0.27216300    0.02803500    1.32927299
 H         -6.01615810    1.13773894    0.10706500
 H         -6.01104021    2.45098305    1.31380701
 H         -6.31233406    0.76782101    1.83042204
