53
wb97x-d4 ma-def2-tzvp(-f) cpcm(dmso) E: -1515.68708630577, G: -1515.2755160000002
 C         -5.10673904   -1.57368302    0.75736898
 C         -3.97092700   -0.86079502    0.05239700
 H         -5.09764719   -2.62843990    0.48341399
 O         -6.37316990   -1.05272996    0.36634901
 H         -4.96902514   -1.48916805    1.84239101
 O         -4.00623512    0.49693200    0.50856501
 C         -2.59844708   -1.45653903    0.39126500
 H         -4.13270998   -0.89419502   -1.03055298
 C         -1.52567804   -0.60447502   -0.25543100
 O         -2.49518490   -2.81433010    0.00900100
 H         -2.46730494   -1.41848695    1.47671795
 C         -3.11366105    1.35891998   -0.15200301
 H         -6.37748098   -0.11175800    0.58080798
 O         -1.34779799   -0.94151098   -1.57223701
 O         -3.35875106    1.45137203   -1.52676296
 H         -2.41935992   -2.85043502   -0.95365298
 H         -0.85187203   -0.22777900   -2.00206494
 C         -4.58207512    2.12147593   -1.83811295
 C         -1.65911198    0.88613200    0.02082200
 H         -3.24960995    2.33589292    0.32449701
 H         -1.38020396    1.06709695    1.06166196
 O         -0.79021502    1.62607205   -0.81855798
 H         -1.32235301    1.96468902   -1.55382895
 C          2.14576602   -0.72871101    0.80820400
 C          2.28291607   -0.84295702   -0.71593899
 C          3.54553509   -0.10741200   -1.18551505
 H          2.33017206   -1.89913499   -0.99890399
 H          1.40280104   -0.40899700   -1.19766295
 C          3.44644403    1.37075400   -0.78981698
 C          3.32266808    1.48667800    0.73345101
 H          4.33559513    1.91065502   -1.13392794
 H          2.57597208    1.82937598   -1.27225697
 C          2.06188107    0.74899900    1.20612597
 H          1.96554101    0.82619900    2.29380393
 H          1.17295504    1.20097005    0.75911403
 C          3.38168406   -1.35753202    1.46863902
 S          0.69079399   -1.65976405    1.39906096
 C          4.77508211   -0.73493999   -0.51824802
 H          3.62764692   -0.19589400   -2.27355003
 C          4.64594984   -0.61949199    1.00505495
 H          4.86247301   -1.78809297   -0.80811000
 H          5.68476915   -0.22492900   -0.85407299
 H          5.51745510   -1.07593298    1.48524702
 C          4.55299091    0.85909301    1.39815903
 H          3.28916097   -1.29666197    2.55828595
 H          3.44495010   -2.41650295    1.19746006
 H          4.48028517    0.95419502    2.48733497
 H          3.24649000    2.54108691    1.01860297
 H          5.46026087    1.38539004    1.08135998
 H         -0.39289600   -1.01381195    0.46490800
 H         -4.62204790    2.21422505   -2.92241406
 H         -4.59770298    3.11596489   -1.38007998
 H         -5.44003487    1.54291904   -1.48636901
