53
wb97x-d4 ma-def2-tzvp(-f) cpcm(dmso) E: -1515.685400092126, G: -1515.2754911200002
 C         -4.07097816   -1.20211101    1.85901797
 C         -3.51101899   -0.58526099    0.59855402
 H         -4.14026117   -2.28413010    1.71791601
 O         -5.35963392   -0.64112699    2.10708594
 H         -3.38959098   -0.99577099    2.69290304
 O         -3.19867897    0.78156298    0.89134902
 C         -2.22866106   -1.30015802    0.13826101
 H         -4.26210690   -0.63430101   -0.19763400
 C         -1.66050196   -0.55651301   -1.04981899
 O         -2.45396900   -2.66495705   -0.15610901
 H         -1.50411296   -1.26239097    0.95624501
 C         -2.77552795    1.53995895   -0.21365499
 H         -5.70272017   -1.03571200    2.91654706
 O         -2.29820800   -0.91951400   -2.21005392
 O         -3.73488688    1.62219799   -1.22950804
 H         -2.91395998   -2.71689105   -1.00425005
 H         -2.04476404   -0.29294899   -2.90466905
 C         -4.87806606    2.39929199   -0.86736000
 C         -1.50290596    0.93770701   -0.83423799
 H         -2.56195402    2.53701305    0.18694399
 H         -0.69562799    1.10292494   -0.11789200
 O         -1.16907299    1.58493102   -2.04867196
 H         -1.98781300    1.95346606   -2.41157007
 C          2.15924191   -0.88808399   -0.59589303
 C          3.49656892   -1.63922298   -0.70459902
 C          4.57771301   -0.88704902    0.08498200
 H          3.38032293   -2.65352988   -0.30918700
 H          3.78858590   -1.72241294   -1.75684905
 C          4.73885202    0.52755398   -0.48214099
 C          3.40703201    1.27681696   -0.36697501
 H          5.51976919    1.06330597    0.06881600
 H          5.05100012    0.47866899   -1.53137100
 C          2.33266091    0.52568698   -1.16381896
 H          1.38274002    1.06463897   -1.11421001
 H          2.61930299    0.45923799   -2.21802497
 C          1.75545704   -0.80914199    0.87970102
 S          0.94500101   -1.84674895   -1.56744206
 C          4.16598415   -0.80291897    1.55906403
 H          5.52339077   -1.43134499   -0.00373700
 C          2.83189106   -0.05734400    1.67403603
 H          4.07080221   -1.81005704    1.98000503
 H          4.93795919   -0.27802801    2.13259602
 H          2.52670193   -0.00370200    2.72406912
 C          2.98687410    1.35904801    1.10572505
 H          0.79725200   -0.29099900    0.97817498
 H          1.62578905   -1.82094097    1.27626896
 H          2.03957891    1.90314305    1.19389296
 H          3.51513195    2.28653598   -0.77636701
 H          3.73909211    1.91194999    1.67906201
 H         -0.35786000   -1.06854796   -1.19753301
 H         -5.50222492    2.47334290   -1.75673497
 H         -4.57165813    3.40025306   -0.54616100
 H         -5.43792486    1.91262305   -0.06474300
