53
wb97x-d4 ma-def2-tzvp(-f) cpcm(dmso) E: -1515.686513926719, G: -1515.2754802400002
 C         -4.92729712   -1.50016296   -0.90513802
 C         -3.89010811   -0.52372199   -0.38622499
 H         -4.76876307   -1.66674900   -1.97031605
 O         -6.24779510   -0.98995602   -0.75398201
 H         -4.81732321   -2.45607805   -0.37820899
 O         -4.15415716   -0.37287399    1.01475298
 C         -2.46283507   -1.04730296   -0.54516900
 H         -3.99809098    0.44014001   -0.89376700
 C         -1.50547194   -0.06809200    0.10124900
 O         -2.18832994   -1.24582303   -1.91811204
 H         -2.39412689   -1.99221301    0.01030800
 C         -3.35953689    0.58419001    1.67107403
 H         -6.37961102   -0.80384302    0.18389200
 O         -1.22581601    1.01353598   -0.68661201
 O         -3.53123593    1.87815297    1.16652203
 H         -1.30256701   -1.62782001   -1.98811495
 H         -0.80151999    1.68522406   -0.13076501
 C         -4.81530380    2.43368006    1.45773900
 C         -1.86342096    0.24445000    1.54575706
 H         -3.66817403    0.54155099    2.72129512
 H         -1.68147397   -0.65043700    2.14577198
 O         -1.06558502    1.29817200    2.05299401
 H         -1.58504403    2.11231709    1.97995305
 C          2.15227890   -0.97643101   -0.17016600
 C          2.23485303    0.13718000    0.87987101
 C          3.49969101    0.97354102    0.65053201
 H          1.34982896    0.77541399    0.81487000
 H          2.24872708   -0.30625600    1.88055801
 C          4.73514080    0.07472500    0.77009100
 C          4.65927982   -1.03953099   -0.27997601
 H          5.64515114    0.66641903    0.62182099
 H          4.78560209   -0.36079699    1.77435803
 C          3.39261603   -1.87487698   -0.04457300
 H          3.33554697   -2.68699694   -0.77717698
 H          3.41976690   -2.32637596    0.95246798
 C          2.11340094   -0.35871699   -1.57249296
 S          0.69406599   -2.03531790    0.12429700
 C          3.45034599    1.59491301   -0.75075603
 H          3.54465294    1.76583695    1.40477598
 C          3.37741494    0.48106101   -1.80153894
 H          2.57722712    2.25128007   -0.83897501
 H          4.34220123    2.20858312   -0.91917503
 H          3.33728909    0.92056698   -2.80356407
 C          4.61216688   -0.41957399   -1.68155897
 H          2.04903102   -1.15689194   -2.31889892
 H          1.21922195    0.26374200   -1.67268300
 H          4.57450104   -1.20935500   -2.44022298
 H          5.53435087   -1.69139004   -0.19234900
 H          5.52113914    0.16517000   -1.86073005
 H         -0.36756700   -0.88106000    0.17500000
 H         -5.00501490    2.40836906    2.53589392
 H         -5.60217810    1.88451302    0.93449700
 H         -4.79714203    3.46591592    1.11090696
