53
wb97x-d4 ma-def2-tzvp(-f) cpcm(dmso) E: -1515.684637454801, G: -1515.2754391
 C         -4.67793798   -1.89327800    0.11189800
 C         -3.75430608   -0.70258701   -0.00579700
 H         -4.25427103   -2.72291803   -0.46077400
 O         -5.96126080   -1.53101003   -0.39781800
 H         -4.74818277   -2.18880510    1.16553497
 O         -4.20060587    0.28031600    0.93451899
 C         -2.29699206   -1.08711195    0.31000599
 H         -3.80680490   -0.29724500   -1.02240396
 C         -1.45371604    0.16933900    0.34674901
 O         -1.78642094   -2.03162193   -0.61036301
 H         -2.26857996   -1.55436003    1.29857194
 C         -3.50029707    1.50461197    0.87510401
 H         -6.54108191   -2.29562712   -0.30876899
 O         -1.07717001    0.57094902   -0.90833002
 O         -3.57649398    2.11815691   -0.37439901
 H         -1.61693394   -1.57499695   -1.44519198
 H         -0.88425398    1.52088702   -0.87421697
 C         -4.89597702    2.55157804   -0.70444500
 C         -2.02232003    1.25688899    1.22708905
 H         -3.96953297    2.13523412    1.64067197
 H         -2.00372195    0.90400201    2.26442099
 O         -1.20822501    2.40209198    1.05608296
 H         -1.65443695    3.16977596    1.43348300
 C          2.21449494   -0.49395001    0.76990402
 C          2.36809397    0.98530602    0.39589101
 C          3.55602694    1.15924096   -0.56013697
 H          1.45040298    1.34195697   -0.07981300
 H          2.52263093    1.57587194    1.30440497
 C          4.83791780    0.68079197    0.13047799
 C          4.69335508   -0.79797298    0.50702697
 H          5.69604588    0.81289500   -0.53777099
 H          5.02535677    1.27965605    1.02885997
 C          3.50200391   -0.97153002    1.45930803
 H          3.39881301   -2.02397490    1.74355900
 H          3.66560411   -0.39306301    2.37476397
 C          1.98501897   -1.32345200   -0.49859801
 S          0.85712802   -0.73025000    1.97025704
 C          3.31623292    0.33009699   -1.82739103
 H          3.65035892    2.21784902   -0.82322401
 C          3.17544103   -1.15009606   -1.45138597
 H          2.40838194    0.67583197   -2.33450103
 H          4.15243292    0.46102300   -2.52315307
 H          2.99928999   -1.74507403   -2.35351491
 C          4.45751619   -1.62804794   -0.75967699
 H          1.86739004   -2.37734199   -0.22700900
 H          1.06217694   -1.00039697   -0.98736399
 H          4.36994886   -2.68920207   -0.50049001
 H          5.60216808   -1.14161003    1.01147497
 H          5.31098890   -1.52481699   -1.43890405
 H         -0.30802700   -0.24509200    1.05159199
 H         -4.81930923    3.10669899   -1.63858294
 H         -5.29129696    3.20540404    0.08087500
 H         -5.56706619    1.69897699   -0.83850199
