53
wb97x-d4 ma-def2-tzvp(-f) cpcm(dmso) E: -1515.686376580135, G: -1515.2754106
 C         -3.18905807   -1.68067002    1.90863597
 C         -3.14020205   -0.68484497    0.75537598
 H         -2.27549100   -1.58379996    2.50906110
 O         -3.36341691   -3.01866794    1.45743096
 H         -4.04494476   -1.44058096    2.54230309
 O         -3.20755100    0.61439002    1.34601796
 C         -1.83528101   -0.80162299   -0.05336200
 H         -3.99677610   -0.84921497    0.09251700
 C         -1.78178799    0.31800401   -1.06286502
 O         -1.70589805   -2.08071494   -0.65636301
 H         -0.99986899   -0.69205999    0.64315200
 C         -3.28706908    1.67561495    0.41167501
 H         -2.69745898   -3.17416310    0.77231300
 O         -2.52655292    0.04103600   -2.17999911
 O         -4.40338707    1.58081603   -0.41582000
 H         -2.29674792   -2.11503601   -1.42123604
 H         -2.74661899    0.88297999   -2.60959411
 C         -5.63270521    1.78070402    0.28180999
 C         -2.01686001    1.68494701   -0.44861600
 H         -3.33439207    2.58528709    1.02031696
 H         -1.18598604    1.90588605    0.22711000
 O         -2.13894010    2.67313600   -1.45664597
 H         -1.24826002    2.89955306   -1.75717998
 C          2.07035804    0.22564200   -1.03009403
 C          1.91720796   -1.28116703   -0.79804301
 C          2.98306704   -1.76713502    0.19222000
 H          0.91855103   -1.49749601   -0.41025600
 H          2.02003407   -1.80644596   -1.75285804
 C          4.37538910   -1.48923695   -0.38546601
 C          4.53986216    0.01696400   -0.62204599
 H          5.14640188   -1.84344995    0.30762401
 H          4.50539207   -2.03320003   -1.32775998
 C          3.46792006    0.50293797   -1.60821795
 H          3.58457208    1.57649195   -1.78982902
 H          3.57845998   -0.01239000   -2.56794000
 C          1.92239797    0.97386301    0.29752499
 S          0.86530101    0.81762999   -2.26915598
 C          2.82097101   -1.01837599    1.52167296
 H          2.85659909   -2.84234595    0.35473800
 C          2.99112701    0.48700899    1.28523505
 H          1.83114195   -1.22087300    1.94638097
 H          3.56702304   -1.37027800    2.24258709
 H          2.87157702    1.02445304    2.23163104
 C          4.38348198    0.76346701    0.70728201
 H          2.02571988    2.04961109    0.12464800
 H          0.92565501    0.79927498    0.71376699
 H          4.51660109    1.83989894    0.55132997
 H          5.52833509    0.21829300   -1.04710603
 H          5.15426493    0.43603700    1.41354096
 H         -0.45564801    0.42760399   -1.52681601
 H         -5.82721281    0.95995599    0.97771299
 H         -6.41951609    1.81478798   -0.47073099
 H         -5.60978222    2.72749400    0.83238500
