53
wb97x-d4 ma-def2-tzvp(-f) cpcm(dmso) E: -1515.685768237323, G: -1515.2753810600002
 C         -4.70319796   -1.52195704   -0.82547998
 C         -3.74456000   -0.45033100   -0.36097300
 H         -4.27687788   -2.01459098   -1.70344496
 O         -5.95176506   -0.90938997   -1.14560103
 H         -4.82682180   -2.26358795   -0.02734400
 O         -4.20597410    0.01686200    0.91210502
 C         -2.31563807   -0.99734402   -0.20217900
 H         -3.74146390    0.37433001   -1.08252501
 C         -1.44222999    0.09195100    0.37918901
 O         -1.79614401   -1.49563599   -1.41909897
 H         -2.34469604   -1.83399296    0.50188398
 C         -3.48666811    1.10318100    1.43906498
 H         -6.55374479   -1.60145998   -1.44082403
 O         -1.01387000    0.96097702   -0.58937502
 O         -3.52712107    2.24185205    0.62484199
 H         -1.55240500   -0.74299502   -1.97377396
 H         -0.67855603    1.76029503   -0.15564799
 C         -4.81728411    2.85397100    0.56839901
 C         -2.00567102    0.73890603    1.63157904
 H         -3.95287704    1.31390202    2.40787101
 H         -1.95251596    0.01224300    2.44601607
 O         -1.24161899    1.87678397    1.98968101
 H         -1.71755695    2.65549898    1.66568100
 C          2.16794109   -0.89042598    0.54089499
 C          2.43736005    0.58362401    0.86852199
 C          3.65034294    1.08155799    0.07058000
 H          1.55613303    1.18396699    0.62624300
 H          2.62177610    0.68775499    1.94240701
 C          4.88106823    0.25001901    0.45089599
 C          4.62033892   -1.22523201    0.12603900
 H          5.75822020    0.60363901   -0.10212500
 H          5.09640789    0.36684200    1.51894403
 C          3.40353799   -1.71906495    0.92225802
 H          3.21789789   -2.77678895    0.70822001
 H          3.59454298   -1.62399197    1.99656296
 C          1.90563595   -1.04706204   -0.96179402
 S          0.76343900   -1.53101301    1.51736403
 C          3.36964893    0.93131799   -1.42911696
 H          3.82775092    2.13500905    0.31035799
 C          3.11806703   -0.54490697   -1.75705397
 H          2.49518204    1.53053796   -1.70719099
 H          4.22161293    1.30355799   -2.00874209
 H          2.91386008   -0.65634698   -2.82695699
 C          4.34939194   -1.37434399   -1.37566495
 H          1.71521497   -2.10115194   -1.18745804
 H          1.01370203   -0.48189199   -1.24186003
 H          4.18177319   -2.42825103   -1.62486994
 H          5.49236202   -1.82528198    0.40556300
 H          5.22185612   -1.03575206   -1.94542694
 H         -0.33454499   -0.62551701    0.87849897
 H         -5.17700577    3.07704091    1.57833695
 H         -5.53280878    2.20288396    0.05988600
 H         -4.70145178    3.77980590    0.00663900
