53
wb97x-d4 ma-def2-tzvp(-f) cpcm(dmso) E: -1515.688546755165, G: -1515.2782353500002
 C         -3.51603007   -2.26504207   -0.48057401
 C         -3.27414107   -0.76683199   -0.45910901
 H         -4.52867794   -2.45939302   -0.11021900
 O         -2.55406308   -2.98915696    0.27871400
 H         -3.44564700   -2.62372994   -1.50775898
 O         -3.39125991   -0.35196701    0.90473098
 C         -1.88798702   -0.37666500   -0.98268503
 H         -4.04135418   -0.27998701   -1.07136905
 C         -1.67996395    1.11271906   -0.78314000
 O         -1.83880198   -0.68934900   -2.36815000
 H         -1.13211203   -0.92999202   -0.41935599
 C         -3.31506610    1.04438400    1.10871899
 H         -2.63127899   -2.70493793    1.19748998
 O         -2.27882290    1.89422798   -1.73731697
 O         -4.32272005    1.74431705    0.44454300
 H         -0.91349202   -0.75941700   -2.63559198
 H         -2.29859900    1.37430799   -2.55803704
 C         -5.62001705    1.53120100    1.00090098
 C         -1.95572400    1.58324802    0.62752301
 H         -3.40524602    1.17783296    2.19240594
 H         -1.20113599    1.14826202    1.28512299
 O         -1.87285602    2.98399496    0.76761901
 H         -2.60018206    3.36802602    0.26003000
 C          2.17775011    0.60049200   -0.63846499
 C          1.80259502    0.55122799    0.84614801
 C          2.78403497   -0.35547400    1.60125899
 H          1.81806505    1.56252301    1.26433396
 H          0.78686202    0.15934400    0.95468998
 C          2.72323990   -1.77116096    1.01469803
 C          3.10716391   -1.72435999   -0.46892601
 H          3.40821505   -2.43132210    1.55796695
 H          1.71279502   -2.18027496    1.12669897
 C          2.12574291   -0.81623602   -1.22175705
 H          2.37917304   -0.78294402   -2.28589392
 H          1.10993600   -1.21373296   -1.13429594
 C          3.60712695    1.15055799   -0.77842498
 S          1.09090698    1.74455094   -1.55950999
 C          4.20596123    0.19788800    1.45661700
 H          2.50222707   -0.38058800    2.65890408
 C          4.58937216    0.24173500   -0.02695100
 H          4.26234722    1.20346999    1.88833904
 H          4.91115618   -0.43570200    2.00570798
 H          5.60064316    0.64670902   -0.13542099
 C          4.52943277   -1.17235303   -0.61412400
 H          3.87883306    1.20388901   -1.83812594
 H          3.64936805    2.16608405   -0.37198001
 H          4.81794405   -1.15245199   -1.67107296
 H          3.05843997   -2.73204589   -0.89449501
 H          5.23859978   -1.82398403   -0.09184600
 H         -0.30936000    1.31333697   -1.00266004
 H         -6.30268097    2.19505596    0.47199801
 H         -5.62236309    1.77543294    2.06871104
 H         -5.93833113    0.49428299    0.86338502
