53
wb97x-d4 ma-def2-tzvp(-f) cpcm(dmso) E: -1515.686390455179, G: -1515.2753777300002
 C         -3.39678192    0.28531200    2.33660603
 C         -3.22637701    0.13287300    0.83001202
 H         -2.50029302    0.75729698    2.75867701
 O         -3.66815305   -0.95645100    2.97485304
 H         -4.25112915    0.93751299    2.52725196
 O         -3.22152591    1.45793903    0.29454201
 C         -1.90280497   -0.56225502    0.45900699
 H         -4.06664515   -0.44111800    0.42428401
 C         -1.73686302   -0.52016002   -1.03965795
 O         -1.83695996   -1.88256896    0.97686201
 H         -1.08781695   -0.00034800    0.92217100
 C         -3.19161797    1.51650906   -1.12010396
 H         -2.98529792   -1.57853305    2.68627191
 O         -2.46039891   -1.49925601   -1.66982698
 O         -4.27921391    0.87425202   -1.70793605
 H         -2.40566993   -2.44829011    0.43657401
 H         -2.60418010   -1.21910203   -2.58792496
 C         -5.52078104    1.53026199   -1.44989800
 C         -1.89198005    0.87218797   -1.61933994
 H         -3.19818807    2.58578205   -1.35910499
 H         -1.07370603    1.49404001   -1.24571204
 O         -1.89835703    0.82686400   -3.03521991
 H         -0.98217201    0.72674602   -3.32878804
 C          2.10778403   -0.62893498   -0.74474400
 C          3.52755594   -0.82194799   -1.30189204
 C          4.55874300   -0.45983499   -0.22400001
 H          3.66106510   -1.86249804   -1.61597097
 H          3.66613507   -0.18669000   -2.18289900
 C          4.37032890    1.00344896    0.19221100
 C          2.95642304    1.19662404    0.75146598
 H          5.11399221    1.27426004    0.94970900
 H          4.52414322    1.66131198   -0.67048103
 C          1.92864001    0.83503503   -0.32986099
 H          0.91724199    0.99219400    0.05600100
 H          2.05433512    1.48003101   -1.20506895
 C          1.92151701   -1.53857696    0.47519600
 S          0.95663601   -1.09283495   -2.08516502
 C          4.36480618   -1.36542594    0.99684799
 H          5.56348705   -0.60139900   -0.63493800
 C          2.94984794   -1.17444503    1.55380797
 H          4.51825714   -2.41338897    0.71574199
 H          5.10571003   -1.11826301    1.76510203
 H          2.80355191   -1.82748103    2.42041492
 C          2.75477099    0.28864700    1.97067499
 H          0.90702999   -1.42688596    0.86851901
 H          2.04466891   -2.58291793    0.17163900
 H          1.74806499    0.42974401    2.38011408
 H          2.81443095    2.24249601    1.04225099
 H          3.47097802    0.55286598    2.75635505
 H         -0.39479101   -0.81308103   -1.34909797
 H         -5.77968884    1.47819304   -0.38883001
 H         -6.27814198    1.01082003   -2.03559399
 H         -5.47061491    2.57943797   -1.76110494
