53
wb97x-d4 ma-def2-tzvp(-f) cpcm(dmso) E: -1515.686266448957, G: -1515.27534296
 C         -3.39230704    0.26835799    2.33331203
 C         -3.19733691    0.12687100    0.82903498
 H         -2.48561502    0.69647598    2.77970600
 O         -3.72858691   -0.96987498    2.94666791
 H         -4.22228193    0.95359701    2.51557708
 O         -3.11846590    1.45657802    0.30929399
 C         -1.89339399   -0.60697198    0.47323799
 H         -4.05378294   -0.40282100    0.39835301
 C         -1.72439802   -0.60123700   -1.02602303
 O         -1.85432601   -1.91911399    1.01387703
 H         -1.06937695   -0.05191000    0.92849201
 C         -3.06828904    1.53379905   -1.09574795
 H         -3.05696797   -1.61075103    2.67304301
 O         -2.47549200   -1.58535397   -1.61763299
 O         -4.20245695    0.99747097   -1.71380901
 H         -2.40164304   -2.49158311    0.45883000
 H         -2.50697994   -1.41184402   -2.57096696
 C         -5.37463379    1.79644299   -1.53593099
 C         -1.84633195    0.77933800   -1.64943898
 H         -2.98261189    2.60225391   -1.32024503
 H         -0.96133000    1.35785401   -1.37706602
 O         -1.90534997    0.68571198   -3.06072998
 H         -2.83984303    0.73187399   -3.31159592
 C          2.11485696   -0.83182901   -0.63268602
 C          3.52876401   -1.07524300   -1.18641400
 C          4.57141399   -0.51472199   -0.20895500
 H          3.68794799   -2.14934492   -1.32942104
 H          3.62916708   -0.58999902   -2.16265202
 C          4.34849691    0.99172300   -0.03292500
 C          2.94094706    1.23749495    0.52104598
 H          5.09807682    1.40263498    0.65228099
 H          4.46668482    1.50313795   -0.99481302
 C          1.90286505    0.67583001   -0.45903799
 H          0.89727497    0.86688799   -0.07401200
 H          1.98712099    1.17213094   -1.43090498
 C          1.98008597   -1.53248203    0.72330701
 S          0.95185900   -1.52915204   -1.85667300
 C          4.42773008   -1.21483898    1.14681494
 H          5.57121277   -0.69527799   -0.61660701
 C          3.01965904   -0.96917701    1.70085597
 H          4.60268497   -2.29066205    1.03403795
 H          5.17826080   -0.83180100    1.84693396
 H          2.91102004   -1.47370100    2.66654611
 C          2.79145694    0.53686100    1.87691498
 H          0.97075099   -1.38290203    1.11753595
 H          2.12754989   -2.60901403    0.59216702
 H          1.78994298    0.71831298    2.28325510
 H          2.77251005    2.31279492    0.63949901
 H          3.51560998    0.94486099    2.59055400
 H         -0.39256600   -0.97853899   -1.28497303
 H         -6.16668510    1.32632303   -2.11696005
 H         -5.19970608    2.81320095   -1.90259302
 H         -5.66319799    1.83132696   -0.48235500
