53
wb97x-d4 ma-def2-tzvp(-f) cpcm(dmso) E: -1515.684664005026, G: -1515.27532128
 C         -3.53641295   -2.33311796   -0.65557098
 C         -3.23691893   -0.84972501   -0.52797902
 H         -4.61471605   -2.45185590   -0.78386098
 O         -3.16992497   -3.08862090    0.49632999
 H         -3.03859901   -2.71814799   -1.54890299
 O         -4.04266691   -0.33072799    0.53392798
 C         -1.75563204   -0.55429399   -0.23740800
 H         -3.51451898   -0.37075800   -1.47454798
 C         -1.58162200    0.93241698   -0.01855000
 O         -0.92598301   -1.04478002   -1.27253199
 H         -1.47105205   -1.07438600    0.68040800
 C         -3.99709511    1.07567000    0.65081501
 H         -2.24800110   -3.35428905    0.40989900
 O         -1.48365498    1.61768103   -1.20279706
 O         -4.42073917    1.73114705   -0.50486702
 H         -1.03388500   -0.47117099   -2.04265809
 H         -1.71859598    2.54330397   -1.03351796
 C         -5.80413723    1.52048600   -0.78617799
 C         -2.55863500    1.50933504    0.98189199
 H         -4.66407204    1.31172895    1.48931706
 H         -2.32700491    1.08605194    1.96582103
 O         -2.38000607    2.91370893    0.97183698
 H         -3.08918405    3.32842898    1.47756004
 C          2.14381790    0.51685399    0.79079902
 C          1.88656902   -0.98874700    0.92195302
 C          3.04011989   -1.77228200    0.27961501
 H          1.79692805   -1.24982297    1.98128796
 H          0.94376397   -1.24279594    0.43240401
 C          3.14882398   -1.39587295   -1.20338500
 C          3.42045999    0.10776000   -1.32970095
 H          3.95928407   -1.96292400   -1.67465699
 H          2.22036195   -1.65337598   -1.72486103
 C          2.26554990    0.89164901   -0.69088000
 H          2.44466305    1.96789706   -0.77961600
 H          1.32731199    0.66649300   -1.20570195
 C          3.45865989    0.86481601    1.50632596
 S          0.82865798    1.48559701    1.60789895
 C          4.34983683   -1.42280197    0.99549901
 H          2.84081101   -2.84465790    0.37521601
 C          4.61540794    0.08162700    0.86924797
 H          4.28574705   -1.70572495    2.05226493
 H          5.18031120   -1.98539197    0.55469197
 H          5.54425287    0.33810800    1.38897598
 C          4.72983408    0.45657700   -0.61262602
 H          3.64705610    1.94067800    1.42823601
 H          3.37706208    0.61595798    2.56977391
 H          4.93845606    1.52761102   -0.71329898
 H          3.49486494    0.38213599   -2.38713503
 H          5.56416321   -0.08561900   -1.07119000
 H         -0.37052399    1.10356903    0.66966999
 H         -5.99417114    0.48124400   -1.06812000
 H         -6.05983782    2.17644405   -1.61743796
 H         -6.41517305    1.77691805    0.08631600
