53
wb97x-d4 ma-def2-tzvp(-f) cpcm(dmso) E: -1515.685336939246, G: -1515.27528563
 C         -3.50580406   -2.42477894   -0.41185901
 C         -3.22391796   -0.93442100   -0.37756699
 H         -2.78928208   -2.90580511   -1.08307195
 O         -4.84468317   -2.71874189   -0.80033201
 H         -3.37585902   -2.83753490    0.59159797
 O         -4.01521111   -0.37470400    0.67327797
 C         -1.73610604   -0.64563203   -0.10741400
 H         -3.50528407   -0.48480901   -1.33736503
 C         -1.55112600    0.84443098    0.09426600
 O         -0.91415799   -1.14596903   -1.14399004
 H         -1.44542897   -1.16081595    0.81269598
 C         -3.96673489    1.03476000    0.74511898
 H         -4.94322205   -2.49148512   -1.73233294
 O         -1.42736900    1.51252198   -1.09558296
 O         -4.37626600    1.64958501   -0.43802801
 H         -1.01005197   -0.56440300   -1.90980101
 H         -1.64845705    2.44383597   -0.93201500
 C         -5.76087809    1.44582403   -0.71793699
 C         -2.53247499    1.47094703    1.06945503
 H         -4.63638687    1.30365896    1.56967294
 H         -2.31234002    1.09835398    2.07402706
 O         -2.45114708    2.88603902    1.01495504
 H         -1.74739599    3.17688298    1.60799098
 C          2.17940998    0.48572299    0.83084500
 C          2.04548001   -1.03193200    1.00472105
 C          3.20225096   -1.74243104    0.28880000
 H          2.05408096   -1.27646697    2.07165909
 H          1.08834696   -1.36303997    0.59294498
 C          3.16643310   -1.39217603   -1.20368397
 C          3.31237602    0.12439000   -1.37654901
 H          3.97860408   -1.90746605   -1.72847199
 H          2.22261596   -1.73047101   -1.64528799
 C          2.15602112    0.83610100   -0.66074002
 H          2.24594903    1.92035604   -0.78178602
 H          1.20177996    0.52905798   -1.09489703
 C          3.51554203    0.94566900    1.43460298
 S          0.85686499    1.36348701    1.73649800
 C          4.53363514   -1.27943099    0.89242798
 H          3.09358597   -2.82415891    0.41817901
 C          4.67499018    0.23716301    0.71941203
 H          4.57293415   -1.54059100    1.95599496
 H          5.36724186   -1.79038703    0.39797601
 H          5.61969519    0.57327002    1.15880299
 C          4.64381409    0.58567703   -0.77276301
 H          3.61388302    2.03066301    1.32629395
 H          3.53699398    0.71351302    2.50484490
 H          4.76108980    1.66675198   -0.90773702
 H          3.28194499    0.37916499   -2.44099998
 H          5.47854424    0.09696600   -1.28744304
 H         -0.34504399    0.99777299    0.79613203
 H         -5.96512985    0.39676800   -0.94909900
 H         -6.00113297    2.06325889   -1.58270204
 H         -6.37322378    1.75505698    0.13626300
