53
wb97x-d4 ma-def2-tzvp(-f) cpcm(dmso) E: -1515.685815608731, G: -1515.27526048
 C         -3.44273710   -2.13604689   -1.27659905
 C         -3.16921210   -0.70239401   -0.86277801
 H         -4.50996208   -2.23639703   -1.50224698
 O         -3.04143095   -3.08237290   -0.29100901
 H         -2.87795210   -2.36402702   -2.18173790
 O         -4.00250292   -0.43778601    0.27328801
 C         -1.70342898   -0.45666900   -0.46921000
 H         -3.43922496   -0.04163800   -1.69339597
 C         -1.56314397    0.97167301   -0.00263200
 O         -0.83455700   -0.69297898   -1.56286299
 H         -1.46574497   -1.11196303    0.37422401
 C         -3.98625708    0.89715898    0.71341002
 H         -3.57469511   -2.93094993    0.49849901
 O         -1.46878803    1.86538196   -1.03577995
 O         -4.45831013    1.79656601   -0.25017601
 H         -0.57710999   -1.62151599   -1.55047905
 H         -1.59955096    2.75332499   -0.66898698
 C         -5.85594082    1.66235101   -0.51461101
 C         -2.56271791    1.33760595    1.08704698
 H         -4.63238907    0.91747302    1.59789097
 H         -2.28492498    0.79807299    1.99592602
 O         -2.51580691    2.72700191    1.35968494
 H         -3.23981094    3.14079809    0.86743098
 C          2.14400792    0.46334800    0.87193799
 C          1.89092195   -1.04749203    0.93118501
 C          3.05737209   -1.79784000    0.27511701
 H          1.78151596   -1.35612500    1.97561800
 H          0.95630401   -1.28282499    0.41524199
 C          3.18943191   -1.35548699   -1.18713796
 C          3.45841503    0.15327699   -1.24160397
 H          4.00900412   -1.89921105   -1.66997504
 H          2.26998210   -1.59145200   -1.73461699
 C          2.29061508    0.90579802   -0.58867800
 H          2.47058105    1.98506701   -0.62405598
 H          1.36213303    0.70256603   -1.12835801
 C          3.44462705    0.78194898    1.62631702
 S          0.80967700    1.38585103    1.70987797
 C          4.35269690   -1.47681797    1.02916002
 H          2.86069298   -2.87403488    0.31981900
 C          4.61536503    0.03229000    0.97437698
 H          4.27011490   -1.80551100    2.07127404
 H          5.19263411   -2.01783895    0.57943201
 H          5.53429985    0.26746899    1.52108204
 C          4.75408697    0.47293901   -0.48720399
 H          3.62946296    1.86089396    1.60089898
 H          3.34553289    0.48440701    2.67568207
 H          4.96056604    1.54796505   -0.53676999
 H          3.55045605    0.47410300   -2.28448796
 H          5.59839582   -0.04595200   -0.95446402
 H         -0.36651900    1.05896795    0.71938199
 H         -6.42848587    1.73741496    0.41585499
 H         -6.06810379    0.70523399   -0.99786699
 H         -6.12958384    2.47838092   -1.18193305
