53
wb97x-d4 ma-def2-tzvp(-f) cpcm(dmso) E: -1515.685904829907, G: -1515.2752304100002
 C         -3.82335496   -1.18750703    2.03622603
 C         -3.39961505   -0.53425199    0.72550201
 H         -3.44746709   -0.58996201    2.87666011
 O         -3.38391805   -2.53665900    2.13216400
 H         -4.91390800   -1.19998598    2.08406591
 O         -4.11154318    0.70310301    0.65489799
 C         -1.88972199   -0.24468200    0.67946899
 H         -3.67501593   -1.18291795   -0.11335200
 C         -1.56589603    0.54162401   -0.56779999
 O         -1.12925506   -1.44046497    0.77392900
 H         -1.63603199    0.36438000    1.55175805
 C         -3.92857409    1.41726995   -0.54449302
 H         -2.43777394   -2.53902507    1.92717803
 O         -1.43334496   -0.27642900   -1.65890801
 O         -4.34814882    0.70861900   -1.67523301
 H         -1.14969206   -1.87883198   -0.08793200
 H         -1.41300797    0.27352199   -2.45647812
 C         -5.76536417    0.54006302   -1.74793804
 C         -2.44795489    1.76591003   -0.75600100
 H         -4.52021122    2.33145499   -0.42643401
 H         -2.17492104    2.49983501    0.00675300
 O         -2.24007893    2.34608698   -2.03034711
 H         -2.93170404    2.00502205   -2.61639500
 C          2.19886088    0.82110000    0.05527600
 C          2.06886601   -0.25355199   -1.03132105
 C          3.21048999   -1.26894903   -0.89515299
 H          1.10556400   -0.76059800   -0.93555999
 H          2.09814501    0.21986900   -2.01799798
 C          4.55525398   -0.55105299   -1.05181801
 C          4.69117689    0.51965803    0.03634300
 H          5.37673903   -1.27169704   -0.97262502
 H          4.61893511   -0.08716800   -2.04255104
 C          3.54960608    1.53558695   -0.10636300
 H          3.64646506    2.31942892    0.65272498
 H          3.59474802    2.01606011   -1.08901596
 C          2.13643789    0.16022700    1.43704200
 S          0.90527701    2.09708190   -0.12519300
 C          3.13859892   -1.93046200    0.48676199
 H          3.10479498   -2.03015304   -1.67505705
 C          3.27704406   -0.85918498    1.57407200
 H          2.18440890   -2.45729804    0.59992099
 H          3.93847895   -2.67238092    0.58828503
 H          3.22068191   -1.32699597    2.56247091
 C          4.62173510   -0.14070401    1.41821206
 H          2.22061896    0.92883599    2.21195292
 H          1.16877997   -0.33433500    1.56045103
 H          4.73466492    0.61676401    2.20198607
 H          5.64631414    1.04273498   -0.07616500
 H          5.44458008   -0.85537797    1.53071499
 H         -0.32600701    1.15672302   -0.32654899
 H         -5.97749281    0.07382100   -2.70896411
 H         -6.26737499    1.51133394   -1.68882501
 H         -6.11989689   -0.10548900   -0.94034398
