53
wb97x-d4 ma-def2-tzvp(-f) cpcm(dmso) E: -1515.685818861148, G: -1515.2751527100002
 C         -4.98061419   -1.80034399    0.65084499
 C         -3.96215010   -0.82276398    0.09397700
 H         -5.00231409   -2.68969893    0.01554800
 O         -6.28000498   -1.22876298    0.77263600
 H         -4.67600107   -2.09789610    1.65729499
 O         -3.80250692    0.21761100    1.06331301
 C         -2.60282803   -1.50166404   -0.14333500
 H         -4.32850409   -0.40217599   -0.85036403
 C         -1.58388603   -0.45646200   -0.54718399
 O         -2.68554497   -2.54290509   -1.09749901
 H         -2.27863503   -1.95425904    0.79835802
 C         -2.95861912    1.26768994    0.66629601
 H         -6.63585901   -1.10218894   -0.11475500
 O         -1.66132700   -0.17621300   -1.88777196
 O         -3.40453005    1.93190897   -0.48294601
 H         -2.75543904   -2.14106989   -1.97370005
 H         -1.14879799    0.62807000   -2.06009007
 C         -4.60454512    2.67898297   -0.27581000
 C         -1.54054201    0.75250900    0.37172100
 H         -2.93650198    1.95742702    1.51734304
 H         -1.10949302    0.44236499    1.32647002
 O         -0.73624700    1.77859402   -0.18123400
 H         -1.33248997    2.41185403   -0.60688198
 C          2.18200302   -1.00393295   -0.01894900
 C          3.46516800   -1.84794402    0.04567500
 C          4.68643618   -0.92381400    0.15629400
 H          3.42272091   -2.51888204    0.91027802
 H          3.54339290   -2.46707702   -0.85394102
 C          4.74449778   -0.00394800   -1.06893694
 C          3.46713996    0.84079599   -1.13293397
 H          5.62255001    0.64807999   -1.00391197
 H          4.84494209   -0.60156697   -1.98180103
 C          2.24939203   -0.08641900   -1.24531305
 H          1.33305097    0.50627297   -1.31105399
 H          2.32123590   -0.69552797   -2.15188503
 C          2.07781792   -0.15405101    1.25277698
 S          0.78873998   -2.17727995   -0.14824200
 C          4.57303381   -0.07642400    1.42853999
 H          5.59112883   -1.53868198    0.20074899
 C          3.29743409    0.77066100    1.36430204
 H          4.54723215   -0.72601497    2.31065702
 H          5.45064211    0.57252699    1.52343905
 H          3.20652199    1.37248898    2.27442503
 C          3.35160494    1.68964601    0.13910501
 H          1.16323602    0.44310400    1.22205698
 H          2.01829100   -0.81107801    2.12609291
 H          2.44930792    2.30953908    0.09570100
 H          3.49980497    1.49426901   -2.01078296
 H          4.21113014    2.36477494    0.21547900
 H         -0.38391700   -1.15241504   -0.34239301
 H         -4.48389721    3.36844802    0.56643403
 H         -5.44801188    2.01075411   -0.08430000
 H         -4.78524399    3.24308705   -1.18979204
