53
wb97x-d4 ma-def2-tzvp(-f) cpcm(dmso) E: -1515.685629510026, G: -1515.27510263
 C         -3.48171210    1.88484001    1.90379798
 C         -3.26969910    0.92074502    0.74252999
 H         -2.88829494    2.79258800    1.73520505
 O         -3.16421890    1.29410398    3.15842009
 H         -4.53651714    2.16435695    1.93696797
 O         -3.85274601    1.54049897   -0.40427601
 C         -1.77931905    0.65737897    0.46759599
 H         -3.77237010   -0.02760100    0.96159202
 C         -1.63620996   -0.15702300   -0.79756802
 O         -1.15057695    0.03499100    1.57884705
 H         -1.28491902    1.62186599    0.32069001
 C         -3.87177396    0.71387303   -1.55331194
 H         -2.28951597    0.88988501    3.06587100
 O         -1.79360497   -1.49832904   -0.57174897
 O         -4.56500816   -0.47629401   -1.34745204
 H         -1.40416706   -0.89824998    1.58348095
 H         -2.02210498   -1.91410303   -1.41923797
 C         -5.96567011   -0.27910700   -1.15351295
 C         -2.43086910    0.39207500   -1.97083998
 H         -4.35972118    1.31549704   -2.32821989
 H         -1.97915196    1.33775198   -2.28435111
 O         -2.45495892   -0.54612797   -3.03354502
 H         -1.67215097   -0.41015199   -3.58131909
 C          2.20611191   -0.04754500   -0.72000998
 C          3.59648299    0.02790000   -1.37039196
 C          4.66908693   -0.34488600   -0.33770901
 H          3.64219904   -0.65673602   -2.22366691
 H          3.77241397    1.04162395   -1.74591303
 C          4.60913181    0.63282800    0.84107298
 C          3.22391510    0.56091100    1.49293399
 H          5.38239813    0.37904099    1.57455504
 H          4.80687189    1.65289295    0.49297300
 C          2.15256810    0.93250197    0.45833701
 H          1.16042101    0.89986098    0.91553497
 H          2.31989503    1.94987500    0.09044300
 C          1.96060395   -1.47286999   -0.21313900
 S          1.00117505    0.41486901   -2.01203895
 C          4.41732407   -1.77100003    0.16609401
 H          5.65292978   -0.28912801   -0.81467199
 C          3.03299904   -1.84429204    0.82098198
 H          4.47530079   -2.47865796   -0.66846699
 H          5.18966198   -2.05194712    0.89053398
 H          2.84696388   -2.86273503    1.17720604
 C          2.96938992   -0.86482799    1.99882603
 H          0.96637100   -1.53616905    0.23832300
 H          1.98888099   -2.17048597   -1.05625796
 H          1.98663497   -0.92152601    2.48017097
 H          3.17117500    1.26475096    2.32992506
 H          3.72020698   -1.13508403    2.74958301
 H         -0.32288301    0.06660800   -1.24346697
 H         -6.42121410   -1.26819503   -1.12578201
 H         -6.38849306    0.29789799   -1.98333395
 H         -6.16324091    0.24106200   -0.21225600
