53
wb97x-d4 ma-def2-tzvp(-f) cpcm(dmso) E: -1515.687233049822, G: -1515.2750739500002
 C         -5.13164091   -1.50636899    0.53429800
 C         -3.98374295   -0.69522899   -0.05390400
 H         -5.00564480   -1.59828496    1.61534798
 O         -5.13957691   -2.83636904    0.00600600
 H         -6.07865715   -0.99890000    0.33230001
 O         -4.11062717    0.62153900    0.47597900
 C         -2.60966897   -1.26121998    0.33217999
 H         -4.07113218   -0.67852098   -1.14647806
 C         -1.52861297   -0.33269799   -0.18189999
 O         -2.37752795   -2.53729391   -0.24384700
 H         -2.54979706   -1.30298102    1.42769694
 C         -3.19545293    1.54959595   -0.07279700
 H         -5.51693392   -2.80823708   -0.88202101
 O         -1.22718799   -0.50316799   -1.50635695
 O         -3.33810997    1.69456100   -1.45363295
 H         -3.22569489   -3.01221704   -0.23911799
 H         -1.39702594   -1.43684006   -1.71645999
 C         -4.56723404    2.31189394   -1.83554804
 C         -1.74548805    1.11578703    0.20791000
 H         -3.40945601    2.49501204    0.43721899
 H         -1.59793794    1.19426095    1.28744197
 O         -0.82704902    1.99244201   -0.40531901
 H         -1.04028296    2.01801801   -1.34776604
 C          2.12298012   -0.58181101    0.90945601
 C          2.20013094   -0.81003797   -0.60555798
 C          3.50570011   -0.22071700   -1.15687501
 H          2.15223503   -1.88382494   -0.81411600
 H          1.34192204   -0.34042999   -1.09325004
 C          3.54685307    1.28372002   -0.86505598
 C          3.48186803    1.51324201    0.64918602
 H          4.46781683    1.71803498   -1.26969898
 H          2.70414209    1.78336096   -1.35626304
 C          2.17739010    0.92258000    1.20256698
 H          2.12127304    1.08233500    2.28433609
 H          1.31489694    1.41504097    0.74666297
 C          3.32091689   -1.26881194    1.58211005
 S          0.61120701   -1.33903098    1.60142303
 C          4.69821978   -0.90670598   -0.47932500
 H          3.54588294   -0.39030099   -2.23774600
 C          4.62840891   -0.67768800    1.03494596
 H          4.68544006   -1.98062503   -0.69698203
 H          5.63708591   -0.50278401   -0.87426299
 H          5.47293901   -1.17460501    1.52322495
 C          4.67480516    0.82671601    1.32431602
 H          3.26831007   -1.12461805    2.66667509
 H          3.28504896   -2.34546804    1.38631904
 H          4.64509821    1.00250006    2.40550399
 H          3.50546002    2.58728695    0.86110300
 H          5.61322308    1.24916303    0.94806403
 H         -0.43226200   -0.73347902    0.58901602
 H         -5.41725588    1.66269898   -1.60888004
 H         -4.51395082    2.48043203   -2.91042089
 H         -4.69129705    3.26904511   -1.31770897
