53
wb97x-d4 ma-def2-tzvp(-f) cpcm(dmso) E: -1515.685300788067, G: -1515.27505085
 C         -5.06746197   -1.66159999    0.51138800
 C         -4.00038910   -0.72554898   -0.03036200
 H         -6.00383615   -1.10013199    0.60300499
 O         -4.70283079   -2.24280310    1.75729001
 H         -5.22536802   -2.48281789   -0.18934000
 O         -3.86306405    0.32378000    0.92871201
 C         -2.64615989   -1.41468596   -0.24017601
 H         -4.34815884   -0.31829301   -0.98851597
 C         -1.58280003   -0.38489801   -0.59267402
 O         -2.71250606   -2.41627693   -1.24542403
 H         -2.35662293   -1.90431297    0.69261301
 C         -2.98102689    1.35832798    0.54508102
 H         -4.58611393   -1.52515602    2.39173198
 O         -1.53788102   -0.01705600   -1.91252303
 O         -3.37026191    1.98761106   -0.63793898
 H         -3.39833403   -2.18521810   -1.88501704
 H         -1.67530501   -0.81270999   -2.44876003
 C         -4.57923079    2.73584700   -0.51118600
 C         -1.56131697    0.80318499    0.34654501
 H         -2.99202800    2.06703496    1.38023102
 H         -1.22740805    0.45096701    1.32525504
 O         -0.67016500    1.81585205   -0.06139900
 H         -0.99591398    2.16801500   -0.90013099
 C          2.14718294   -0.98771900   -0.01474800
 C          3.43412995   -1.82788706   -0.01386700
 C          4.65343904   -0.90385801    0.12207700
 H          3.40999103   -2.54072499    0.81732798
 H          3.49974203   -2.40110493   -0.94430602
 C          4.68943882    0.07274500   -1.05930901
 C          3.40691805    0.91187102   -1.06557405
 H          5.56520796    0.72589099   -0.97630602
 H          4.77977896   -0.48103401   -2.00049901
 C          2.19095707   -0.01552700   -1.19956601
 H          1.27146006    0.57334501   -1.22441900
 H          2.25299001   -0.58415002   -2.13302803
 C          2.06080604   -0.19868000    1.29689598
 S          0.75075799   -2.15467405   -0.17082500
 C          4.55664587   -0.11547700    1.43324304
 H          5.56120110   -1.51584303    0.12455900
 C          3.27691293    0.72801399    1.42765296
 H          4.54672003   -0.80434102    2.28541994
 H          5.43347311    0.53204900    1.54387903
 H          3.19926691    1.28756797    2.36571503
 C          3.30715704    1.70202506    0.24559700
 H          1.13978601    0.38954499    1.31038499
 H          2.02450299   -0.89687800    2.13909793
 H          2.40161705    2.31842709    0.24458700
 H          3.42217398    1.60442698   -1.91346800
 H          4.16491604    2.37727189    0.33971000
 H         -0.41187900   -1.11227906   -0.34379101
 H         -4.71125603    3.28119707   -1.44487405
 H         -4.50585699    3.44373894    0.32158101
 H         -5.43399715    2.07295299   -0.35155600
