53
wb97x-d4 ma-def2-tzvp(-f) cpcm(dmso) E: -1515.685283885548, G: -1515.27498758
 C         -4.70794106   -1.72504902   -0.99764103
 C         -3.78259897   -0.62555200   -0.49133399
 H         -4.60126495   -2.61401796   -0.36307201
 O         -4.46515417   -2.04129100   -2.36322808
 H         -5.73922491   -1.37398803   -0.92701101
 O         -4.29361010   -0.22344001    0.78103799
 C         -2.33426094   -1.11233103   -0.31418601
 H         -3.80130911    0.21500200   -1.19375300
 C         -1.51964605   -0.01598100    0.32936499
 O         -1.77279305   -1.54577899   -1.54414499
 H         -2.34456992   -1.97873199    0.35300899
 C         -3.62488103    0.88805401    1.34526098
 H         -3.51590610   -2.20999503   -2.44831800
 O         -1.11597395    0.92483300   -0.58164299
 O         -3.68603897    2.02293706    0.54026401
 H         -1.53993702   -0.76272303   -2.06193995
 H         -0.93606299    1.75057495   -0.10597600
 C         -5.00879097    2.54472303    0.40838099
 C         -2.14875102    0.52445900    1.59194601
 H         -4.13438416    1.06579995    2.30029893
 H         -2.14655209   -0.27458701    2.34212589
 O         -1.36535203    1.62650895    2.00775790
 H         -1.81831098    2.08871794    2.72362995
 C          2.14074492   -0.77540302    0.56792003
 C          3.41873002   -1.50620496    1.00666404
 C          4.63323021   -0.89072901    0.29756200
 H          3.53626800   -1.42328703    2.09237003
 H          3.33803701   -2.56991792    0.75932401
 C          4.46435308   -1.02664196   -1.22004104
 C          3.19105792   -0.29502499   -1.66110396
 H          5.33629513   -0.60345203   -1.73089695
 H          4.40292978   -2.08502793   -1.49735403
 C          1.97922504   -0.91328698   -0.95035797
 H          1.06153703   -0.41154701   -1.26827705
 H          1.88688600   -1.97250700   -1.21057796
 C          2.25986004    0.70749801    0.93845803
 S          0.74724299   -1.56532001    1.44611394
 C          4.74431515    0.59233600    0.66870600
 H          5.53580999   -1.42092896    0.61819798
 C          3.47195411    1.32513905    0.22777601
 H          4.88091803    0.69875300    1.75071704
 H          5.62012482    1.03468204    0.18130399
 H          3.54265690    2.38368392    0.49847201
 C          3.29749990    1.18893600   -1.28951502
 H          1.34741294    1.23469901    0.64769602
 H          2.36664295    0.80369300    2.02356195
 H          2.39512110    1.72121894   -1.61118305
 H          3.06144309   -0.39720100   -2.74340296
 H          4.14972305    1.64377999   -1.80636001
 H         -0.38799900   -0.69670099    0.82262301
 H         -5.45336390    2.71331191    1.39539802
 H         -5.64428902    1.86412001   -0.16466101
 H         -4.92105484    3.49318600   -0.11996400
