53
wb97x-d4 ma-def2-tzvp(-f) cpcm(dmso) E: -1515.68456409007, G: -1515.27492912
 C         -5.18147278   -1.02176595    1.18559003
 C         -4.05004787   -0.56143099    0.27441099
 H         -4.90547895   -0.83823502    2.23180294
 O         -5.51219511   -2.38984489    0.97733301
 H         -6.07451010   -0.43665299    0.95773000
 O         -3.98573399    0.86104399    0.39421600
 C         -2.69173193   -1.15026402    0.68648702
 H         -4.27698803   -0.84832799   -0.75806898
 C         -1.60070300   -0.53951401   -0.16351400
 O         -2.68713808   -2.56852889    0.61137301
 H         -2.51040196   -0.88778901    1.73237395
 C         -3.06971097    1.46867299   -0.49482200
 H         -4.68526793   -2.89018393    1.02968097
 O         -1.50934005   -1.14921904   -1.38862503
 O         -3.36492491    1.21458900   -1.83240604
 H         -2.62322497   -2.81915689   -0.32080501
 H         -1.09676301   -0.52511299   -2.00601411
 C         -4.59574699    1.80343604   -2.25336504
 C         -1.64217806    0.97210300   -0.19135100
 H         -3.14515996    2.54236889   -0.28288299
 H         -1.38931096    1.33847106    0.81006300
 O         -0.69614798    1.39989197   -1.15246701
 H         -0.83561802    2.33463907   -1.34603596
 C          2.09345508   -0.62557298    0.85420603
 C          2.16654205   -0.86712003   -0.65892702
 C          3.44673395   -0.23814499   -1.22521496
 H          2.15202808   -1.94338095   -0.85793197
 H          1.29257905   -0.42481801   -1.14320099
 C          3.43685603    1.26980305   -0.94935602
 C          3.37482691    1.51297998    0.56287903
 H          4.33936024    1.73168099   -1.36481702
 H          2.57403302    1.73443305   -1.43963301
 C          2.09661794    0.88174099    1.13224101
 H          2.04104900    1.05126095    2.21231890
 H          1.21466196    1.33932805    0.67592502
 C          3.32044792   -1.26335096    1.52388501
 S          0.62036902   -1.42889404    1.57452202
 C          4.66773176   -0.87532800   -0.55127698
 H          3.48459601   -0.41704801   -2.30464911
 C          4.60180187   -0.63241100    0.96065098
 H          4.69026518   -1.95132995   -0.75747699
 H          5.58863115   -0.44344699   -0.95859301
 H          5.46678019   -1.09411204    1.44763505
 C          4.59638309    0.87552899    1.23527896
 H          3.27101707   -1.11040401    2.60736108
 H          3.32056189   -2.34244609    1.33861995
 H          4.56865883    1.06034601    2.31502604
 H          3.36178207    2.58912611    0.76422501
 H          5.51625299    1.32747698    0.84794199
 H         -0.46076101   -0.88106197    0.57983702
 H         -4.64789295    1.68338704   -3.33480310
 H         -4.61607313    2.86889291   -1.99947000
 H         -5.44951200    1.30369401   -1.78790700
