53
wb97x-d4 ma-def2-tzvp(-f) cpcm(dmso) E: -1515.688496767521, G: -1515.2781845900001
 C         -3.90053511   -1.31627798    1.76955795
 C         -3.44514108   -0.59176898    0.51829797
 H         -4.05616379   -2.37055993    1.54071200
 O         -5.13943911   -0.80688101    2.25128388
 H         -3.12076998   -1.23348498    2.53672695
 O         -3.21198702    0.76695901    0.90237701
 C         -2.14737701   -1.17384100   -0.04617300
 H         -4.23092222   -0.63598102   -0.24318600
 C         -1.67585301   -0.29873699   -1.19572794
 O         -2.40393901   -2.48926306   -0.51653600
 H         -1.38990903   -1.17630398    0.74335903
 C         -2.87654090    1.63718700   -0.15929700
 H         -5.01486921    0.13301601    2.43148494
 O         -2.32938290   -0.52993798   -2.37671900
 O         -3.87426209    1.72140396   -1.13057494
 H         -1.55573595   -2.94564891   -0.60287100
 H         -2.60163903   -1.46285200   -2.37707996
 C         -5.05012608    2.39106202   -0.67513299
 C         -1.57727695    1.16820502   -0.84193498
 H         -2.71739292    2.61263490    0.31310499
 H         -0.78238100    1.28523302   -0.10265600
 O         -1.24424696    1.98315597   -1.94348395
 H         -2.00057912    1.97952700   -2.54538488
 C          2.10763788   -0.82766402   -0.67488098
 C          3.39583802   -1.66177595   -0.76968402
 C          4.48639202   -1.03031695    0.10694600
 H          3.19427395   -2.68609190   -0.43965599
 H          3.72976494   -1.70618403   -1.81172502
 C          4.76588392    0.39825699   -0.37330201
 C          3.48304605    1.23094404   -0.27173200
 H          5.55475712    0.84950900    0.23846801
 H          5.12116003    0.38262501   -1.40974498
 C          2.39585996    0.60083801   -1.15149796
 H          1.47962403    1.19693601   -1.10251296
 H          2.72042894    0.57632703   -2.19641590
 C          1.64042306   -0.79746097    0.78255498
 S          0.88272703   -1.64444995   -1.75797796
 C          4.01180792   -0.99849701    1.56436396
 H          5.39716387   -1.63233197    0.02708100
 C          2.72785497   -0.16769400    1.66365397
 H          3.82751298   -2.01805496    1.92087102
 H          4.78946590   -0.56201100    2.20073795
 H          2.37755203   -0.14977300    2.70073295
 C          3.00560093    1.26299202    1.18527198
 H          0.72132200   -0.21112800    0.86754000
 H          1.41903901   -1.81530797    1.11843598
 H          2.09596610    1.86866903    1.26773000
 H          3.67651701    2.25096297   -0.61926401
 H          3.76910710    1.72712004    1.81916404
 H         -0.37072301   -0.76926601   -1.41596103
 H         -5.54675007    1.81654704    0.11155200
 H         -5.71350098    2.48163700   -1.53433895
 H         -4.79926777    3.38779902   -0.29655901
