53
wb97x-d4 ma-def2-tzvp(-f) cpcm(dmso) E: -1515.684917686403, G: -1515.2748501400001
 C         -3.90149808   -0.96623099    2.12599301
 C         -3.47451591   -0.42714700    0.76573598
 H         -3.04128599   -0.94942898    2.80762506
 O         -4.45572805   -2.27309608    2.03659201
 H         -4.67672777   -0.31472600    2.53378892
 O         -3.16610003    0.95358998    0.96438003
 C         -2.22895002   -1.14843297    0.22327100
 H         -4.29921484   -0.53659499    0.05288200
 C         -1.74908698   -0.44979700   -1.02619004
 O         -2.48103094   -2.52767301   -0.00038600
 H         -1.44717097   -1.08941901    0.98436898
 C         -2.84791493    1.65349698   -0.22326601
 H         -3.83687997   -2.80757403    1.51843405
 O         -2.46933699   -0.83375603   -2.12949395
 O         -3.87713003    1.63098001   -1.16042900
 H         -2.99772596   -2.61133790   -0.81374103
 H         -2.37546992   -0.14569300   -2.80637407
 C         -5.03666019    2.34915495   -0.73779702
 C         -1.57942402    1.04077494   -0.84859103
 H         -2.64701009    2.68108296    0.10354300
 H         -0.77142602    1.21464503   -0.12997100
 O         -1.26675498    1.57666504   -2.11950493
 H         -1.30651498    2.53980088   -2.07961392
 C          2.07507205   -0.84681100   -0.69568098
 C          3.39424205   -1.61483800   -0.88129503
 C          4.50174522   -0.94981402   -0.05163300
 H          3.26108694   -2.65453291   -0.56515098
 H          3.67078209   -1.62075806   -1.94096994
 C          4.68701792    0.50026703   -0.51107103
 C          3.37405992    1.26661694   -0.31966901
 H          5.48636007    0.97553700    0.06815100
 H          4.98506689    0.52492303   -1.56522703
 C          2.27074289    0.60304302   -1.15421200
 H          1.33336306    1.15502703   -1.04416800
 H          2.53873491    0.61540198   -2.21529007
 C          1.69144702   -0.86940902    0.78673100
 S          0.83077699   -1.70738602   -1.72071600
 C          4.11009693   -0.97147399    1.43021095
 H          5.43369102   -1.50590706   -0.19539100
 C          2.79621291   -0.20642300    1.62097800
 H          3.99504089   -2.00596809    1.77257705
 H          4.90152597   -0.51126599    2.03204107
 H          2.50514793   -0.22719000    2.67619991
 C          2.97668505    1.24536598    1.16122794
 H          0.75142097   -0.33027801    0.93606597
 H          1.53768301   -1.90352905    1.11015105
 H          2.04405594    1.80260003    1.30575705
 H          3.49937510    2.30207300   -0.65285802
 H          3.74979997    1.73513997    1.76347196
 H         -0.45819300   -0.95564300   -1.25868595
 H         -4.77010679    3.37294793   -0.45336801
 H         -5.52051783    1.85200906    0.10727200
 H         -5.71885204    2.37099004   -1.58670294
