53
wb97x-d4 ma-def2-tzvp(-f) cpcm(dmso) E: -1515.683067468181, G: -1515.2747396500001
 C         -5.05116320   -1.77998495    0.00778900
 C         -4.02013302   -0.65859097    0.05873600
 H         -4.57787800   -2.72613907    0.30007300
 O         -5.66038179   -1.88685703   -1.27280498
 H         -5.84395885   -1.55616796    0.72417700
 O         -3.70926905   -0.45740601    1.43860102
 C         -2.72597098   -1.01765394   -0.67928803
 H         -4.45226288    0.25003999   -0.37323499
 C         -1.70856202    0.08739700   -0.47816300
 O         -3.03187609   -1.23503101   -2.05011892
 H         -2.32586598   -1.92989898   -0.22272401
 C         -2.85143304    0.63935500    1.68259704
 H         -4.94103003   -1.93348503   -1.91898000
 O         -1.91310501    1.17653799   -1.28014302
 O         -3.38175511    1.84975004    1.24152994
 H         -2.35486102   -1.80367506   -2.43563795
 H         -1.47155499    1.93122995   -0.85919201
 C         -4.55391598    2.24136591    1.95606506
 C         -1.49721503    0.40073800    0.98785400
 H         -2.71738291    0.65293503    2.77142310
 H         -1.05354095   -0.47728401    1.46998703
 O         -0.63823199    1.52252603    1.06333697
 H         -0.69117200    1.90821099    1.94608700
 C          2.04101396   -0.65459102   -0.91708201
 C          2.09035397   -0.85523403    0.60296899
 C          3.38304210   -0.25106999    1.16763902
 H          1.22401500   -0.37501600    1.06377196
 H          2.04105306   -1.92488396    0.82988101
 C          4.59056807   -0.94555402    0.52749002
 C          4.54814577   -0.74659300   -0.99185699
 H          5.52004290   -0.52994001    0.93215299
 H          4.57762909   -2.01491594    0.76646399
 C          3.25353694   -1.35249698   -1.55227602
 H          3.22131491   -1.23090506   -2.63999295
 H          3.21638298   -2.42515993   -1.33445597
 C          2.09427190    0.84290302   -1.23963702
 S          0.55267602   -1.43164599   -1.63450098
 C          3.42418194    1.24774003    0.84772098
 H          3.40205908   -0.39879301    2.25228500
 C          3.38606405    1.44778097   -0.67188197
 H          2.57186699    1.75417304    1.31418896
 H          4.33672810    1.69295001    1.25932002
 H          3.41066098    2.51728892   -0.90492600
 C          4.59337616    0.75165898   -1.31171894
 H          2.05712199    0.98196298   -2.32474709
 H          1.22298300    1.34237504   -0.80737603
 H          4.58163309    0.90385699   -2.39677906
 H          5.40297604   -1.25007498   -1.45467305
 H          5.52324486    1.18622506   -0.92845100
 H         -0.54340702   -0.54419798   -0.92989999
 H         -4.36104202    2.24425602    3.03446388
 H         -5.38926697    1.57044005    1.73841202
 H         -4.80070877    3.24955106    1.62552798
