53
wb97x-d4 ma-def2-tzvp(-f) cpcm(dmso) E: -1515.685318456158, G: -1515.2747160400002
 C         -4.70713520   -1.64090502   -1.05367601
 C         -3.77092004   -0.55501002   -0.53815103
 H         -4.63364983   -2.52488899   -0.40765899
 O         -4.43955612   -1.97699404   -2.40989399
 H         -5.73218393   -1.26773095   -1.01105702
 O         -4.30503988   -0.12272400    0.71469599
 C         -2.33907509   -1.07051396   -0.31567299
 H         -3.75252795    0.27494401   -1.25307405
 C         -1.51708198    0.01870600    0.33124200
 O         -1.75632799   -1.53723097   -1.52309299
 H         -2.38601494   -1.92490900    0.36524799
 C         -3.62613010    0.98255599    1.27897501
 H         -3.49338102   -2.17156792   -2.46957302
 O         -1.07403398    0.93834001   -0.58354700
 O         -3.64064288    2.10484600    0.45429099
 H         -1.49351299   -0.76883501   -2.04832196
 H         -0.89195299    1.76836300   -0.11631000
 C         -4.94739199    2.65344906    0.27880201
 C         -2.16546011    0.59053898    1.57009196
 H         -4.15622997    1.18765700    2.21710801
 H         -2.20048404   -0.19751900    2.33089209
 O         -1.36925197    1.68116796    1.99197698
 H         -1.83438396    2.16790795    2.68342900
 C          2.11562109   -0.80387300    0.63053298
 C          3.37955189   -1.54346502    1.09378803
 C          4.60599995   -0.97066599    0.36934799
 H          3.49681807   -1.43033600    2.17682099
 H          3.28065801   -2.61247993    0.87796599
 C          4.43837309   -1.14800298   -1.14416599
 C          3.17865705   -0.40809101   -1.60960901
 H          5.31858492   -0.75416601   -1.66423404
 H          4.35983992   -2.21274209   -1.39116299
 C          1.95552301   -0.98481798   -0.88346398
 H          1.04728997   -0.47799599   -1.21930003
 H          1.84665000   -2.04975295   -1.11210203
 C          2.26021600    0.68752402    0.95651698
 S          0.70453501   -1.54029500    1.52736402
 C          4.74274683    0.52060002    0.69624501
 H          5.49843216   -1.50693703    0.70779502
 C          3.48440504    1.26232100    0.23069701
 H          4.87936211    0.65715802    1.77485704
 H          5.62712479    0.93239498    0.19767401
 H          3.57329893    2.32704806    0.46993500
 C          3.30978703    1.08408403   -1.28211796
 H          1.35778499    1.22124600    0.64760900
 H          2.36627698    0.81433600    2.03852105
 H          2.41706300    1.62184203   -1.62115705
 H          3.04890490   -0.54031098   -2.68863797
 H          4.17033482    1.50867796   -1.81080103
 H         -0.41029099   -0.67950797    0.85628599
 H         -5.58310699    1.97702599   -0.29897299
 H         -4.82453299    3.59003496   -0.26359501
 H         -5.41354609    2.84950089    1.25063896
