53
wb97x-d4 ma-def2-tzvp(-f) cpcm(dmso) E: -1515.684424263979, G: -1515.2746403600001
 C         -4.96079111   -1.77014005    0.68611699
 C         -3.95902205   -0.79907298    0.08928900
 H         -4.97393179   -2.68177891    0.08260500
 O         -6.26731396   -1.21203196    0.79523802
 H         -4.64740181   -2.02777910    1.70081306
 O         -3.80610394    0.27640101    1.01913702
 C         -2.59560990   -1.47244596   -0.14363299
 H         -4.33793211   -0.41742399   -0.86664701
 C         -1.57727206   -0.42798600   -0.55585700
 O         -2.67690802   -2.51698208   -1.09393406
 H         -2.26700401   -1.92094195    0.79830301
 C         -2.97546411    1.32150304    0.56299502
 H         -6.62611103   -1.11306298   -0.09448300
 O         -1.64496005   -0.15186900   -1.89826000
 O         -3.42809296    1.89945197   -0.62239403
 H         -2.77330995   -2.11777306   -1.96895194
 H         -1.25043404    0.72154999   -2.04615593
 C         -4.67362404    2.58030391   -0.47395301
 C         -1.54902005    0.78121299    0.34975401
 H         -2.97793508    2.06058002    1.37381196
 H         -1.18885803    0.46425700    1.33489096
 O         -0.68317002    1.73241699   -0.23888700
 H         -0.74647099    2.56402302    0.24642000
 C          2.17334700   -1.01134706   -0.00679700
 C          3.45179701   -1.86041605    0.07819900
 C          4.67595816   -0.93954301    0.18779400
 H          3.39947605   -2.52069592    0.95044601
 H          3.53498411   -2.49061894   -0.81330198
 C          4.74732208   -0.03316200   -1.04684198
 C          3.47377205    0.81563699   -1.13053095
 H          5.62763214    0.61584002   -0.98175001
 H          4.85243320   -0.64082003   -1.95254898
 C          2.25470209   -0.10905200   -1.24395502
 H          1.34007001    0.48345101   -1.32686806
 H          2.33511400   -0.73083198   -2.14125204
 C          2.06261992   -0.14965400    1.25689805
 S          0.77187401   -2.17371392   -0.13517199
 C          4.55655384   -0.07652200    1.44895196
 H          5.57799196   -1.55715704    0.24614400
 C          3.28387809    0.77348202    1.36609900
 H          4.52285099   -0.71507603    2.33881092
 H          5.43563414    0.57081503    1.54156995
 H          3.18878508    1.38601995    2.26868701
 C          3.34904599    1.67851996    0.13128699
 H          1.14811003    0.44664401    1.21509004
 H          1.99886799   -0.79981703    2.13509202
 H          2.44769311    2.29865193    0.07329600
 H          3.51664305    1.45960200   -2.01500010
 H          4.20867586    2.35364890    0.20695201
 H         -0.38385400   -1.12923002   -0.34055400
 H         -4.61924124    3.30424190    0.34670800
 H         -5.48700523    1.87506104   -0.28237501
 H         -4.85898590    3.10362697   -1.41129601
