53
wb97x-d4 ma-def2-tzvp(-f) cpcm(dmso) E: -1515.684615416117, G: -1515.27456965
 C         -5.17922401   -1.08030999    1.15151703
 C         -4.03648281   -0.66440600    0.23348100
 H         -4.92803621   -0.82135898    2.18800497
 O         -5.48487616   -2.46446204    1.03104198
 H         -6.07588577   -0.52682602    0.86601800
 O         -3.99622893    0.76365799    0.25712800
 C         -2.67705703   -1.19894004    0.71112299
 H         -4.23765612   -1.02464294   -0.78119600
 C         -1.58219695   -0.63398200   -0.16513801
 O         -2.64902306   -2.61866808    0.74346399
 H         -2.51825595   -0.85489100    1.73685706
 C         -3.07519507    1.32348096   -0.65807003
 H         -4.65242386   -2.94648099    1.13843095
 O         -1.46602499   -1.32730699   -1.34290600
 O         -3.34654498    0.97386903   -1.97876704
 H         -2.55770302   -2.93832111   -0.16494100
 H         -1.03723001   -0.74905598   -1.99275601
 C         -4.57519197    1.52054799   -2.45897603
 C         -1.64577997    0.87139601   -0.29966900
 H         -3.16930103    2.40785503   -0.52146202
 H         -1.41445398    1.31055295    0.67747200
 O         -0.69111800    1.24437296   -1.27405596
 H         -0.82271802    2.16900611   -1.51602900
 C          2.09690189   -0.53799099    0.90901297
 C          2.24860692   -0.86486799   -0.58210599
 C          3.50997591   -0.18802100   -1.13570201
 H          2.31126809   -1.94976997   -0.71284002
 H          1.36934996   -0.51118600   -1.12641501
 C          3.39408898    1.32991397   -0.95515400
 C          3.25356698    1.65817499    0.53589702
 H          4.28255177    1.82395899   -1.36381102
 H          2.52519488    1.70714998   -1.50589001
 C          1.99453104    0.98015398    1.09363103
 H          1.88204706    1.20921898    2.15811706
 H          1.10743999    1.35120296    0.57446301
 C          3.33189893   -1.05335605    1.66449106
 S          0.64909899   -1.38831496    1.62603402
 C          4.73837519   -0.70491701   -0.37772399
 H          3.60485291   -0.42789000   -2.19979000
 C          4.59408998   -0.37582499    1.11246002
 H          4.83396912   -1.78790700   -0.51471800
 H          5.64763117   -0.24139699   -0.77619201
 H          5.46455002   -0.75094801    1.66035604
 C          4.48363876    1.14249003    1.29212701
 H          3.22687793   -0.83829600    2.73329711
 H          3.40782404   -2.13946509    1.54801905
 H          4.39991808    1.38971698    2.35643601
 H          3.16472292    2.74130392    0.66903698
 H          5.38889217    1.62867999    0.91199201
 H         -0.44367301   -0.90885699    0.60850102
 H         -5.43194389    1.05627596   -1.96323395
 H         -4.61536217    1.31255805   -3.52747989
 H         -4.60229111    2.60312390   -2.29338598
