53
wb97x-d4 ma-def2-tzvp(-f) cpcm(dmso) E: -1515.68472432734, G: -1515.2745332400002
 C         -3.61915302   -1.17230904   -1.91234899
 C         -3.28039503   -0.22081800   -0.77045399
 H         -3.21267390   -2.16724491   -1.68974495
 O         -3.14560390   -0.69725502   -3.16700792
 H         -4.70516491   -1.25359595   -1.98822701
 O         -4.02221680   -0.67361599    0.36255801
 C         -1.77975094   -0.23343100   -0.42993000
 H         -3.58323312    0.79616803   -1.04358006
 C         -1.53815103    0.59706402    0.80919498
 O         -1.00120497    0.20242500   -1.53369999
 H         -1.48766005   -1.26629996   -0.22158299
 C         -3.91800809    0.17160200    1.49215102
 H         -2.21170712   -0.47212899   -3.04762006
 O         -1.46625400    1.93642402    0.52299601
 O         -4.36625719    1.46642995    1.24243498
 H         -1.08635294    1.16339302   -1.60228097
 H         -1.64430702    2.43130708    1.33752406
 C         -5.76886702    1.52941799    0.98196501
 C         -2.45046902    0.21940300    1.95525301
 H         -4.53882122   -0.30798000    2.25870895
 H         -2.19251609   -0.79834700    2.26945090
 O         -2.22057199    1.15242505    2.99372792
 H         -2.85829091    1.00506794    3.70260000
 C          2.19392300   -0.24376000    0.81292498
 C          3.57498288   -0.41902101    1.46403098
 C          4.65252590   -0.49467501    0.37290499
 H          3.77619600    0.42472899    2.13225508
 H          3.58631110   -1.33325803    2.06697011
 C          4.37018394   -1.68925905   -0.54501599
 C          2.99442601   -1.51598704   -1.19818795
 H          5.14578390   -1.75718796   -1.31588304
 H          4.39654303   -2.62045097    0.03191100
 C          1.91919506   -1.44158101   -0.10555900
 H          0.93052602   -1.33648598   -0.55934298
 H          1.91954100   -2.36084604    0.48864400
 C          2.19027591    1.05065799   -0.00864000
 S          0.97570699   -0.16319600    2.17052197
 C          4.63935804    0.79828900   -0.45147800
 H          5.62990093   -0.61820799    0.85050702
 C          3.26367092    0.97269201   -1.10358202
 H          4.85949993    1.65623796    0.19363201
 H          5.41787386    0.75696200   -1.22123897
 H          3.24533105    1.89897895   -1.68709505
 C          2.97629404   -0.22206700   -2.02027702
 H          1.20611596    1.19747102   -0.45973501
 H          2.38584805    1.90127206    0.65199399
 H          2.00060010   -0.09783000   -2.50269103
 H          2.78346491   -2.37048101   -1.84941006
 H          3.73060894   -0.27284801   -2.81338596
 H         -0.29057801    0.21302000    1.32842398
 H         -6.32965422    1.04556894    1.78914595
 H         -6.01402378    1.04800904    0.03132200
 H         -6.03279495    2.58515191    0.93425101
