53
wb97x-d4 ma-def2-tzvp(-f) cpcm(dmso) E: -1515.684841112274, G: -1515.27452771
 C         -3.12847495   -1.82081401    1.71810997
 C         -3.09436297   -0.80508000    0.58189702
 H         -2.24094605   -1.68782198    2.34985900
 O         -3.22026110   -3.15834689    1.24272597
 H         -4.01535606   -1.63423097    2.32661510
 O         -3.25536799    0.47759300    1.18959701
 C         -1.75816095   -0.83108801   -0.17957801
 H         -3.91651607   -1.00611603   -0.11366400
 C         -1.72890794    0.30278301   -1.17579699
 O         -1.53138494   -2.09049702   -0.79332799
 H         -0.95707202   -0.68305802    0.54889899
 C         -3.36193109    1.54382300    0.26651999
 H         -2.51794791   -3.27343202    0.58665597
 O         -2.42018795   -0.00315400   -2.32068992
 O         -4.44344521    1.40407205   -0.59929198
 H         -2.09508991   -2.15027308   -1.57689297
 H         -2.67863703    0.82797301   -2.74843788
 C         -5.70521784    1.50370598    0.06138600
 C         -2.06180096    1.64111602   -0.55450898
 H         -3.48047900    2.44048595    0.88739800
 H         -1.26616597    1.89814901    0.15291101
 O         -2.14069891    2.58213496   -1.60862803
 H         -2.53102899    3.40034294   -1.27890205
 C          2.13021803    0.20077300   -0.97662097
 C          2.03611803   -1.29221201   -0.64292598
 C          3.06714797   -1.65266395    0.43433499
 H          1.02881300   -1.53142905   -0.29350099
 H          2.21627903   -1.87769401   -1.55013204
 C          4.47488022   -1.34456801   -0.08772500
 C          4.58027077    0.14820699   -0.42164701
 H          5.22254419   -1.61061394    0.66758400
 H          4.68193483   -1.94412696   -0.98126101
 C          3.54424596    0.50956100   -1.49560499
 H          3.61886907    1.57268596   -1.74705303
 H          3.73503900   -0.06310400   -2.40936208
 C          1.87291396    1.02911901    0.28628299
 S          0.97670299    0.65216500   -2.31935096
 C          2.79343605   -0.82463700    1.69646204
 H          2.98373890   -2.71926498    0.66671199
 C          2.90528107    0.66777903    1.36276603
 H          1.79141998   -1.04848099    2.07969308
 H          3.51255798   -1.08721805    2.48010898
 H          2.70666289    1.26304197    2.26000190
 C          4.31395912    0.97351903    0.84164703
 H          1.93308902    2.09462905    0.04347700
 H          0.86462301    0.83158100    0.66170299
 H          4.40657091    2.04230404    0.61811501
 H          5.58040190    0.37171501   -0.80664498
 H          5.05729485    0.73149198    1.60920799
 H         -0.38793901    0.43475199   -1.58818698
 H         -5.86963320    0.64970398    0.72410601
 H         -6.46722698    1.51364601   -0.71688300
 H         -5.76076603    2.43107390    0.64184397
