53
wb97x-d4 ma-def2-tzvp(-f) cpcm(dmso) E: -1515.688181995146, G: -1515.2781754900002
 C         -5.04441404   -1.73342502   -0.76344103
 C         -4.00777912   -0.68289298   -0.40928599
 H         -6.01276922   -1.41716504   -0.36025301
 O         -4.69772720   -3.02847695   -0.28481901
 H         -5.12551785   -1.80580997   -1.84836698
 O         -3.94418693   -0.63930702    1.01845801
 C         -2.61813211   -1.00352895   -0.96529901
 H         -4.34013319    0.28321201   -0.80525202
 C         -1.60179901   -0.01122500   -0.42184600
 O         -2.67596102   -0.89805901   -2.38259602
 H         -2.33948803   -2.01378298   -0.65313399
 C         -3.11096406    0.37528601    1.53873503
 H         -4.64728117   -2.98003197    0.67759901
 O         -1.55716395    1.17384899   -1.10493505
 O         -3.50778890    1.65358102    1.14304805
 H         -2.00564790   -1.47785604   -2.76461291
 H         -1.81760705    0.98131400   -2.02154899
 C         -4.75299120    2.05949211    1.71045005
 C         -1.65740299    0.16542800    1.08123600
 H         -3.17988110    0.27150899    2.62711000
 H         -1.31307304   -0.76323003    1.54207206
 O         -0.82068300    1.20044005    1.54832900
 H         -1.18210196    2.03361797    1.21775401
 C          2.14799690   -0.69298702   -0.57349002
 C          2.23737907   -0.64279902    0.95665097
 C          3.47306395    0.16295899    1.38063598
 H          1.33136499   -0.18302999    1.35971797
 H          2.29911208   -1.66284394    1.34917796
 C          4.73300505   -0.50888699    0.82312101
 C          4.65051222   -0.55956399   -0.70700502
 H          5.62386799    0.05051900    1.12973499
 H          4.82680607   -1.52320504    1.22719097
 C          3.41291094   -1.36503899   -1.12796295
 H          3.35281992   -1.41958499   -2.21986294
 H          3.48411107   -2.38918996   -0.74603498
 C          2.04953694    0.73266298   -1.12794197
 S          0.72359598   -1.70409203   -1.10644698
 C          3.36461210    1.58870304    0.82621801
 H          3.52263308    0.19414900    2.47395706
 C          3.28545594    1.53867102   -0.70418698
 H          2.47333193    2.08086300    1.23133194
 H          4.23536587    2.17778897    1.13504601
 H          3.20156002    2.55472112   -1.10347497
 C          4.54559183    0.86623901   -1.26072299
 H          1.97783899    0.69520003   -2.21975803
 H          1.14148295    1.21145797   -0.75224102
 H          4.50455284    0.84130299   -2.35547209
 H          5.54386806   -1.04802299   -1.10938597
 H          5.43400192    1.44186699   -0.97805601
 H         -0.41607001   -0.70890898   -0.67272598
 H         -4.89626694    3.10510206    1.44055104
 H         -4.72622824    1.96056700    2.80097795
 H         -5.57732821    1.46244001    1.31105304
