53
wb97x-d4 ma-def2-tzvp(-f) cpcm(dmso) E: -1515.684083385559, G: -1515.274433
 C         -5.02211714   -1.78264403    0.48017800
 C         -3.98660207   -0.80554801   -0.04206300
 H         -5.14882612   -2.59547210   -0.23439001
 O         -6.29407215   -1.16217804    0.63531399
 H         -4.67431211   -2.20097804    1.43281400
 O         -3.86054111    0.21138200    0.95860499
 C         -2.62193203   -1.46449399   -0.25505999
 H         -4.33283186   -0.36460999   -0.98212898
 C         -1.60327399   -0.39692801   -0.61244297
 O         -2.75845695   -2.44542909   -1.26639295
 H         -2.31086493   -1.91656601    0.69501197
 C         -3.01522398    1.28362298    0.59516603
 H         -6.17983580   -0.41716799    1.23826897
 O         -1.64077997   -0.02550700   -1.92840004
 O         -3.44038892    1.94410896   -0.55522901
 H         -1.94100404   -2.95570707   -1.31852698
 H         -1.23017299    0.85130602   -1.99400496
 C         -4.68236017    2.62649989   -0.38264999
 C         -1.58682799    0.74978000    0.37535501
 H         -3.03421307    1.96251297    1.45670104
 H         -1.24483800    0.36821300    1.34385097
 O         -0.70686501    1.73230302   -0.13592599
 H         -0.80473202    2.54568505    0.37351900
 C          2.15072489   -1.00543404   -0.05561700
 C          3.42500710   -1.86408603   -0.02662000
 C          4.65657377   -0.95424801    0.09389800
 H          3.38547802   -2.55580091    0.82160002
 H          3.48742390   -2.46093297   -0.94226301
 C          4.71108723   -0.00610200   -1.10969603
 C          3.44050193    0.85072398   -1.14154899
 H          5.59543705    0.63659602   -1.03768897
 H          4.79776478   -0.58278298   -2.03732896
 C          2.21327090   -0.06258900   -1.26268005
 H          1.30254602    0.53953302   -1.30726302
 H          2.27200007   -0.65324402   -2.18235803
 C          2.06765103   -0.18698300    1.23824501
 S          0.73961997   -2.15735507   -0.18883801
 C          4.56450319   -0.13515501    1.38629198
 H          5.55545282   -1.57878399    0.11467000
 C          3.29629207    0.72484899    1.35514295
 H          4.54152918   -0.80432498    2.25374198
 H          5.44932604    0.50307697    1.48646498
 H          3.22151804    1.30675805    2.27968597
 C          3.34499598    1.67112899    0.15120099
 H          1.15489995    0.41389701    1.23358500
 H          2.01741505   -0.86665201    2.09470391
 H          2.44752407    2.29926395    0.13161100
 H          3.47021794    1.52390504   -2.00442600
 H          4.21095610    2.33722901    0.23389700
 H         -0.41168401   -1.09902096   -0.40224901
 H         -5.50448179    1.91822898   -0.24818300
 H         -4.84851599    3.20907211   -1.28803504
 H         -4.63397217    3.29704905    0.48249000
