53
wb97x-d4 ma-def2-tzvp(-f) cpcm(dmso) E: -1515.684404887628, G: -1515.2741706900001
 C         -4.97168398   -1.84801602    0.23575599
 C         -3.99109912   -0.68479401    0.14679700
 H         -4.45911884   -2.72138500    0.65894502
 O         -5.55354118   -2.15809894   -1.02433395
 H         -5.78617382   -1.56894898    0.90705401
 O         -3.65843797   -0.34281099    1.49384606
 C         -2.70138693   -1.06424296   -0.59733897
 H         -4.47148800    0.16193400   -0.35570401
 C         -1.70825803    0.07144500   -0.50344098
 O         -2.95416903   -1.43715501   -1.94414198
 H         -2.27088690   -1.93988895   -0.10397600
 C         -2.83484101    0.79969800    1.61235404
 H         -4.82565594   -2.25267792   -1.65529299
 O         -1.96934497    1.06434703   -1.41276395
 O         -3.41357994    1.94370997    1.06780005
 H         -3.14255691   -0.63411599   -2.44932699
 H         -1.55416703    1.87979305   -1.09065998
 C         -4.57257700    2.37800598    1.77970898
 C         -1.48550904    0.53628099    0.91749901
 H         -2.68135595    0.92379898    2.69146395
 H         -1.00785100   -0.27668101    1.47508204
 O         -0.66062403    1.68419898    0.86372900
 H         -0.72557902    2.16398811    1.69817305
 C          2.04252791   -0.70778298   -0.91102099
 C          2.06506991   -0.86302000    0.61422998
 C          3.36604810   -0.28028700    1.18120503
 H          1.20722997   -0.34275600    1.04736805
 H          1.97890604   -1.92302799    0.87299597
 C          4.56255817   -1.02718794    0.58051097
 C          4.54817295   -0.87190199   -0.94457102
 H          5.49745321   -0.62669301    0.98788601
 H          4.51510906   -2.08835101    0.84977198
 C          3.24498105   -1.45802796   -1.50581300
 H          3.23194909   -1.36921203   -2.59717393
 H          3.17449903   -2.52206707   -1.25625098
 C          2.14357400    0.77714998   -1.27732801
 S          0.54596400   -1.46656299   -1.62825596
 C          3.45406103    1.20690095    0.81798500
 H          3.36486292   -0.39596900    2.26991010
 C          3.44365096    1.36240101   -0.70744401
 H          2.60939407    1.75010204    1.25636196
 H          4.37261915    1.63883603    1.23040795
 H          3.50236297    2.42355609   -0.97091800
 C          4.64024687    0.61448401   -1.30779505
 H          2.12660503    0.88426799   -2.36657310
 H          1.27965295    1.31288397   -0.87406999
 H          4.64836788    0.73432201   -2.39693403
 H          5.39504480   -1.41257095   -1.37926996
 H          5.57629013    1.03466702   -0.92343599
 H         -0.53914797   -0.56741202   -0.93542302
 H         -5.39042807    1.66019905    1.67390704
 H         -4.86740208    3.33296609    1.34652197
 H         -4.34033585    2.51170993    2.84198904
