53
wb97x-d4 ma-def2-tzvp(-f) cpcm(dmso) E: -1515.683674551501, G: -1515.2741704300001
 C         -5.03599977   -1.82074904   -0.26973999
 C         -3.99025702   -0.73910999   -0.11789500
 H         -5.08421516   -2.11665893   -1.32079101
 O         -6.29186296   -1.30298305    0.16783600
 H         -4.74262285   -2.68998289    0.33108899
 O         -3.79637790   -0.52623802    1.28391695
 C         -2.64949608   -1.15250599   -0.73523200
 H         -4.34441090    0.18222800   -0.59164000
 C         -1.62186301   -0.07251300   -0.45417801
 O         -2.83747196   -1.37080300   -2.12088609
 H         -2.31627798   -2.06982207   -0.23255301
 C         -2.92935300    0.53046697    1.60700297
 H         -6.95539808   -1.98987806    0.03971100
 O         -1.70633495    0.98193300   -1.32099795
 O         -3.37212205    1.77218497    1.13462901
 H         -2.00630307   -1.68107498   -2.50139308
 H         -1.20158505    1.71784794   -0.94195497
 C         -4.54855013    2.24301410    1.79429102
 C         -1.52781606    0.29655299    1.01820695
 H         -2.88040709    0.53798300    2.70151997
 H         -1.08396602   -0.54353398    1.55742097
 O         -0.71004701    1.43836904    1.20193303
 H         -1.29953504    2.20245004    1.28427196
 C          2.13629889   -0.76692200   -0.72377098
 C          2.28251910   -0.76421797    0.80308002
 C          3.54260707    0.01381500    1.20708799
 H          1.39818799   -0.30696499    1.25572300
 H          2.34414911   -1.79619002    1.16242802
 C          4.77215576   -0.65567201    0.58232701
 C          4.63318110   -0.65745401   -0.94462699
 H          5.68088913   -0.11695000    0.87291300
 H          4.86744022   -1.68330097    0.95070899
 C          3.37167001   -1.43564701   -1.34459901
 H          3.27095008   -1.45494199   -2.43461108
 H          3.44382691   -2.47186589   -0.99721497
 C          2.03605390    0.67649198   -1.22976506
 S          0.68548101   -1.75333202   -1.23135304
 C          3.43290496    1.45684803    0.69992501
 H          3.63177395    0.00977500    2.29817390
 C          3.29687691    1.45515096   -0.82709599
 H          2.56441307    1.94785297    1.15290701
 H          4.32245111    2.02518106    0.99349302
 H          3.21047807    2.48383594   -1.19174600
 C          4.52613592    0.78561199   -1.45124304
 H          1.92102599    0.67624402   -2.31821704
 H          1.15386903    1.15594304   -0.79849797
 H          4.44316101    0.79430401   -2.54382896
 H          5.50498104   -1.14345598   -1.39432895
 H          5.43194103    1.34192705   -1.18578005
 H         -0.44311401   -0.76682800   -0.74283999
 H         -4.73079777    3.25287104    1.42932296
 H         -4.39381123    2.26380205    2.87817788
 H         -5.40542984    1.60691297    1.55868304
