53
wb97x-d4 ma-def2-tzvp(-f) cpcm(dmso) E: -1515.684795882997, G: -1515.2740875700001
 C         -4.89309311   -1.37214696   -1.01181602
 C         -3.86109304   -0.47063300   -0.37384400
 H         -4.59870291   -1.56430101   -2.04698205
 O         -6.16074514   -0.71886402   -0.95922202
 H         -4.92276621   -2.32419896   -0.46870601
 O         -4.15453005   -0.40816700    1.02713501
 C         -2.44101691   -1.02204299   -0.53348398
 H         -3.92302704    0.52923298   -0.81582397
 C         -1.48114502   -0.10675000    0.19597800
 O         -2.12707090   -1.13785899   -1.90774906
 H         -2.40835810   -2.00193810   -0.03884200
 C         -3.35292006    0.47719201    1.76702595
 H         -6.80912495   -1.29732895   -1.37576795
 O         -1.17394900    1.02189004   -0.51149499
 O         -3.48525000    1.81066096    1.35916603
 H         -1.24084401   -1.52017796   -1.97309899
 H         -0.74879301    1.64566505    0.09721200
 C         -4.76046085    2.37428188    1.67119396
 C         -1.86038399    0.11708800    1.65037203
 H         -3.68551111    0.36502299    2.80478907
 H         -1.70670402   -0.81760699    2.19494796
 O         -1.05384898    1.12199402    2.23770308
 H         -1.56043601    1.94714999    2.20941710
 C          2.15832710   -0.97663498   -0.18214400
 C          2.29088807    0.05238100    0.94647199
 C          3.52995801    0.92574698    0.71207702
 H          1.39520597    0.67796701    0.98729002
 H          2.37201500   -0.46949500    1.90532398
 C          4.77983999    0.03908900    0.69306803
 C          4.65570688   -0.99329698   -0.43341699
 H          5.67379093    0.65338397    0.53900498
 H          4.89263582   -0.46989599    1.65686703
 C          3.41261601   -1.86370206   -0.19598600
 H          3.32446909   -2.61614704   -0.98684299
 H          3.50085592   -2.39186311    0.75904900
 C          2.03627205   -0.25399801   -1.52879798
 S          0.72531003   -2.07167292    0.10791400
 C          3.39438391    1.65117097   -0.63178098
 H          3.60799098    1.65839899    1.52185702
 C          3.27636600    0.61980599   -1.76003206
 H          2.50992608    2.29823899   -0.62111300
 H          4.26799917    2.29029703   -0.80099601
 H          3.17541003    1.13452494   -2.72117496
 C          4.52575779   -0.26822200   -1.77780402
 H          1.94054699   -0.99406600   -2.32986403
 H          1.13237798    0.36125401   -1.53436697
 H          4.45533991   -0.99760002   -2.59253192
 H          5.54072380   -1.63752496   -0.44428501
 H          5.41731787    0.34215799   -1.95894897
 H         -0.34965301   -0.93615502    0.23163100
 H         -4.70991278    3.43046904    1.41013396
 H         -4.97262096    2.26697898    2.74014807
 H         -5.55007315    1.89024496    1.09114099
