53
wb97x-d4 ma-def2-tzvp(-f) cpcm(dmso) E: -1515.684843155267, G: -1515.2738045600001
 C         -4.07315111   -1.90727401   -1.09254098
 C         -3.51113105   -0.64220500   -0.48477101
 H         -3.49277711   -2.15425491   -1.98599100
 O         -5.44363403   -1.68730998   -1.42435503
 H         -3.97571707   -2.72496605   -0.36836201
 O         -4.13157701   -0.47111499    0.79320598
 C         -1.98325300   -0.73817098   -0.31128100
 H         -3.74469995    0.21121800   -1.13118005
 C         -1.50238395    0.46045300    0.47810999
 O         -1.32092905   -0.84956801   -1.55586302
 H         -1.75492001   -1.64422405    0.25738999
 C         -3.79610896    0.73438102    1.44954395
 H         -5.79149914   -2.50362992   -1.80011296
 O         -1.29273999    1.55463803   -0.31692299
 O         -4.12010288    1.86650801    0.70327002
 H         -1.36068904    0.01047600   -1.99471295
 H         -1.32839000    2.34086609    0.25201499
 C         -5.52770376    2.04326010    0.54450101
 C         -2.29207492    0.73590702    1.74286902
 H         -4.36301804    0.71666098    2.38699007
 H         -2.11326098   -0.08133300    2.44881010
 O         -1.91869700    1.98652506    2.29706907
 H         -1.08682895    1.86468005    2.77406001
 C          2.23641896   -0.24989800    0.74394101
 C          3.56360292   -0.48054001    1.48172104
 C          4.72230005   -0.43782800    0.47569200
 H          3.70046091    0.29103601    2.24661398
 H          3.54060507   -1.45172596    1.98743403
 C          4.53002882   -1.53656197   -0.57565200
 C          3.20661092   -1.30939603   -1.31427300
 H          5.36403704   -1.52140796   -1.28604901
 H          4.52595615   -2.52057910   -0.09361300
 C          2.04974103   -1.35017800   -0.30750501
 H          1.09509099   -1.20706999   -0.82085401
 H          2.01751089   -2.32460690    0.19052701
 C          2.27067208    1.11844206    0.05371100
 S          0.90907198   -0.32001501    1.99513197
 C          4.75111198    0.93120700   -0.21444200
 H          5.66259718   -0.60036802    1.01235104
 C          3.42800808    1.15900302   -0.95360601
 H          4.90687895    1.72250199    0.52740598
 H          5.58746815    0.97357798   -0.92096102
 H          3.44133496    2.13888788   -1.44194603
 C          3.23168802    0.05980300   -2.00395393
 H          1.32051897    1.29470301   -0.45824501
 H          2.39352393    1.90408099    0.80603200
 H          2.29305100    0.22313900   -2.54549789
 H          3.05915904   -2.09652495   -2.06095195
 H          4.04526377    0.09480900   -2.73699594
 H         -0.27661100    0.06787200    1.05054295
 H         -5.67104578    3.00976896    0.06294200
 H         -6.02526808    2.04126692    1.52056503
 H         -5.95450783    1.25507605   -0.08180200
