53
wb97x-d4 ma-def2-tzvp(-f) cpcm(dmso) E: -1515.684437446658, G: -1515.27286133
 C         -5.06173277   -1.68929899    0.59291297
 C         -3.96456099   -0.83362502   -0.01300400
 H         -4.88837099   -2.73416591    0.32314000
 O         -6.36154890   -1.26674104    0.19098100
 H         -5.02689886   -1.59932995    1.68140996
 O         -4.11172199    0.48483300    0.52301103
 C         -2.56740093   -1.34237194    0.35227901
 H         -4.07282209   -0.81072199   -1.10319901
 C         -1.53553605   -0.38602400   -0.21247800
 O         -2.41038489   -2.65831304   -0.14418700
 H         -2.48067689   -1.32072198    1.44691706
 C         -3.25230289    1.44805503   -0.03082000
 H         -6.47610521   -1.49147105   -0.73977602
 O         -1.28015900   -0.59542602   -1.53893101
 O         -3.43896604    1.62407506   -1.40760100
 H         -1.53396297   -2.97488189    0.11114100
 H         -0.81907701    0.19077900   -1.87176394
 C         -4.69583511    2.21818590   -1.73693502
 C         -1.77629602    1.06463695    0.17768900
 H         -3.47964001    2.37711406    0.50339901
 H         -1.55512500    1.17830503    1.24155700
 O         -0.92605603    1.92655504   -0.55877697
 H         -1.45023000    2.28792191   -1.28891599
 C          2.12421799   -0.66107798    0.84063500
 C          2.25203395   -0.92478597   -0.66437000
 C          3.55142212   -0.30302301   -1.19416404
 H          2.24531889   -2.00397706   -0.84710401
 H          1.39383101   -0.49554601   -1.18780303
 C          3.53436208    1.20850897   -0.93901801
 C          3.41976810    1.47210896    0.56644398
 H          4.45113707    1.66381204   -1.32956100
 H          2.68934488    1.66722000   -1.46496797
 C          2.12019610    0.85112900    1.09699404
 H          2.02452803    1.03633499    2.17164207
 H          1.25708997    1.30445302    0.60230303
 C          3.32355094   -1.29015195    1.56506097
 S          0.61677301   -1.44082201    1.51677096
 C          4.74580717   -0.93325800   -0.46779501
 H          3.62731791   -0.49699399   -2.26892495
 C          4.62566805   -0.67016900    1.03766298
 H          4.77348185   -2.01185608   -0.65897602
 H          5.68183708   -0.50810999   -0.84660602
 H          5.47169018   -1.12646902    1.56156099
 C          4.61493397    0.84168202    1.29054296
 H          3.23525906   -1.11766696    2.64298797
 H          3.32831907   -2.37238503    1.39891601
 H          4.54983902    1.04268205    2.36576009
 H          3.40152097    2.55091190    0.75246602
 H          5.54895782    1.28581297    0.92893797
 H         -0.41710800   -0.77625000    0.53109002
 H         -5.51946211    1.54578698   -1.48404706
 H         -4.68627882    2.39830089   -2.81101298
 H         -4.81993484    3.16642594   -1.20347297
