53
wb97x-d4 ma-def2-tzvp(-f) cpcm(dmso) E: -1515.682746674253, G: -1515.2727975900002
 C         -5.15122414   -1.15545201    0.95995599
 C         -4.02648211   -0.62157398    0.07690100
 H         -4.88311005   -1.01480305    2.01377892
 O         -5.47092104   -2.51442289    0.69083899
 H         -6.05109692   -0.57360703    0.75284499
 O         -4.00382805    0.78671598    0.30235299
 C         -2.65596604   -1.21488094    0.43262300
 H         -4.25513792   -0.83635300   -0.97425401
 C         -1.53984201   -0.47746900   -0.29626000
 O         -2.59775901   -2.61173701    0.17367600
 H         -2.49882293   -1.08797503    1.50796700
 C         -3.08054900    1.49145997   -0.50180203
 H         -4.71165180   -3.05462408    0.94215399
 O         -1.27457297   -0.90250498   -1.57211494
 O         -3.31003189    1.31658697   -1.86720395
 H         -3.03409290   -2.79801702   -0.66877800
 H         -1.25630796   -1.87058198   -1.57934201
 C         -4.52486706    1.91628397   -2.31724310
 C         -1.64715099    1.03115296   -0.19662300
 H         -3.20414710    2.54316592   -0.22143300
 H         -1.44441998    1.31088996    0.83993298
 O         -0.70863599    1.70758200   -1.00182998
 H         -0.91703498    1.50579798   -1.92346203
 C          2.06920409   -0.55149698    0.93086499
 C          2.19118190   -0.76532400   -0.58349901
 C          3.49239111   -0.13133100   -1.09413099
 H          2.18143201   -1.83817995   -0.80155897
 H          1.33237195   -0.31557801   -1.08839405
 C          3.47933197    1.37105799   -0.78991699
 C          3.36881804    1.58553398    0.72379100
 H          4.39654398    1.83692503   -1.16696501
 H          2.63451409    1.84873796   -1.29862106
 C          2.06898808    0.95062703    1.23689604
 H          1.97761095    1.09991097    2.31759000
 H          1.20521200    1.42118096    0.75980800
 C          3.26952696   -1.20785701    1.62916303
 S          0.56534100   -1.35805798    1.58074296
 C          4.68779516   -0.78650397   -0.39209601
 H          3.56584096   -0.28954700   -2.17499995
 C          4.57185984   -0.57306498    1.12146497
 H          4.71389389   -1.85830295   -0.61875302
 H          5.62333918   -0.35002801   -0.75919098
 H          5.41805506   -1.04834497    1.62803805
 C          4.56417990    0.92941898    1.42450404
 H          3.18449998   -1.07561195    2.71321893
 H          3.27069092   -2.28317404    1.42320895
 H          4.50095415    1.09412003    2.50602007
 H          3.35388303    2.65775394    0.94516999
 H          5.49844122    1.38373494    1.07642496
 H         -0.45110700   -0.82451302    0.51318300
 H         -4.53197718    1.83655500   -3.40362692
 H         -4.56145906    2.97105408   -2.02431011
 H         -5.39370394    1.39467001   -1.90670598
