53
wb97x-d4 ma-def2-tzvp(-f) cpcm(dmso) E: -1515.683058875202, G: -1515.2726890200001
 C         -3.24957609   -2.32162309   -0.09165500
 C         -3.14484000   -0.80545902   -0.23884100
 H         -2.40413904   -2.68840289    0.50231099
 O         -3.32978606   -2.99835491   -1.33965898
 H         -4.17210007   -2.54565501    0.44677600
 O         -3.34193110   -0.28693101    1.07610202
 C         -1.77509797   -0.34955001   -0.76713300
 H         -3.93266511   -0.44817901   -0.91358203
 C         -1.65183604    1.16204703   -0.67062598
 O         -1.53852606   -0.80485302   -2.09265804
 H         -1.00487697   -0.79999202   -0.13554800
 C         -3.36690307    1.12429500    1.15842199
 H         -2.48008490   -2.90134406   -1.78647804
 O         -2.23099303    1.87821698   -1.68925297
 O         -4.37992907    1.69522095    0.38889799
 H         -2.34815192   -0.70766598   -2.61139989
 H         -1.97764695    1.47952199   -2.53430605
 C         -5.68819809    1.45347595    0.90700001
 C         -2.02107406    1.70333505    0.69488001
 H         -3.52079797    1.34317601    2.22055507
 H         -1.27221894    1.35068202    1.40716696
 O         -2.01490903    3.11222410    0.75075799
 H         -2.71695709    3.42948008    0.16746500
 C          2.19512892    0.74168003   -0.42645499
 C          1.83507204    0.41434100    1.02659798
 C          2.79472709   -0.65144998    1.57216597
 H          1.89465106    1.32518494    1.63041604
 H          0.80651897    0.04600400    1.08159900
 C          2.68880701   -1.91899395    0.71543700
 C          3.06859303   -1.59031904   -0.73354101
 H          3.35418892   -2.69434500    1.11074698
 H          1.66620100   -2.31159210    0.75297701
 C          2.10785890   -0.52745402   -1.28268600
 H          2.36381507   -0.28338599   -2.31850600
 H          1.08297896   -0.90838200   -1.27748501
 C          3.63522911    1.27849805   -0.47263801
 S          1.12550795    2.06340408   -1.09397900
 C          4.23013687   -0.11598600    1.52215302
 H          2.52134895   -0.88060999    2.60716391
 C          4.60052204    0.21618800    0.07208900
 H          4.31804895    0.77984202    2.14693999
 H          4.92325401   -0.86474901    1.92133605
 H          5.62036085    0.61216199    0.03187400
 C          4.50307083   -1.05283701   -0.78193700
 H          3.90090394    1.53397596   -1.50399303
 H          3.70550799    2.19216704    0.12647000
 H          4.78482485   -0.83142197   -1.81748104
 H          2.99098492   -2.49289393   -1.34852099
 H          5.20038319   -1.80975795   -0.40627801
 H         -0.27858499    1.44983900   -0.79279101
 H         -5.93989420    0.39080700    0.85252100
 H         -6.38159418    2.02392006    0.29033601
 H         -5.75530815    1.79249799    1.94627404
