53
wb97x-d4 ma-def2-tzvp(-f) cpcm(dmso) E: -1515.684989231885, G: -1515.2725177700001
 C         -5.14198399   -1.49816895    0.66770601
 C         -4.02643394   -0.72732198   -0.02878900
 H         -4.96060991   -1.50243604    1.75003004
 O         -5.27415705   -2.82174397    0.16506501
 H         -6.08792591   -0.98685098    0.47961301
 O         -4.18170977    0.63901502    0.36227399
 C         -2.63359690   -1.18733299    0.40803301
 H         -4.13119316   -0.83126998   -1.11352503
 C         -1.58798802   -0.30622399   -0.23877800
 O         -2.47893405   -2.55725002    0.06957000
 H         -2.56784701   -1.04557395    1.49438298
 C         -3.30012989    1.53822696   -0.26715401
 H         -4.39933681   -3.23200107    0.21914800
 O         -1.32393599   -0.64701802   -1.53524399
 O         -3.45563793    1.57057703   -1.65735900
 H         -1.65300000   -2.87891006    0.45432401
 H         -0.85457301    0.09661500   -1.94464505
 C         -4.69941521    2.13620400   -2.07569408
 C         -1.82986903    1.17411304    0.01233300
 H         -3.53553104    2.51684403    0.16505900
 H         -1.63444197    1.38260102    1.06684506
 O         -0.95865703    1.96541297   -0.77570403
 H         -1.45786095    2.25476503   -1.55371201
 C          2.05945802   -0.58006102    0.90351200
 C          2.18165398   -0.88915801   -0.59314603
 C          3.51217294   -0.34352601   -1.13012302
 H          2.12325811   -1.97093701   -0.74916399
 H          1.34923196   -0.43051600   -1.13283205
 C          3.56548905    1.17358196   -0.91560203
 C          3.45393896    1.48263204    0.58112502
 H          4.50556612    1.57359600   -1.31110203
 H          2.74685597    1.65767503   -1.46017694
 C          2.12324500    0.93774801    1.11794698
 H          2.02833605    1.15754700    2.18601704
 H          1.28369403    1.41478097    0.60340899
 C          3.22466111   -1.24469101    1.65192604
 S          0.51525599   -1.26702201    1.59697795
 C          4.67213678   -1.00936604   -0.38045001
 H          3.58403993   -0.56960100   -2.19888210
 C          4.55690908   -0.70051003    1.11667001
 H          4.65008307   -2.09281707   -0.54250801
 H          5.62861395   -0.63845497   -0.76508802
 H          5.37807178   -1.18118298    1.65799403
 C          4.61410999    0.81643701    1.32995605
 H          3.13916492   -1.03940499    2.72433090
 H          3.17888093   -2.32994199    1.51474905
 H          4.55170107    1.04797995    2.39917803
 H          3.48563290    2.56567311    0.73826098
 H          5.56963778    1.20824003    0.96407300
 H         -0.48185199   -0.63890600    0.55190301
 H         -4.82339382    3.13816404   -1.65171301
 H         -5.53518009    1.50263798   -1.76849496
 H         -4.66661215    2.19712901   -3.16252708
