53
wb97x-d4 ma-def2-tzvp(-f) cpcm(dmso) E: -1515.682563993028, G: -1515.2723872400002
 C         -5.05332518   -1.56296396    0.76575100
 C         -4.00650215   -0.64855599    0.13580500
 H         -4.64896107   -1.99678802    1.68829596
 O         -5.50463295   -2.57758403   -0.12185100
 H         -5.92466879   -0.95785397    1.02250504
 O         -3.86018896    0.44488001    1.04078603
 C         -2.64653206   -1.33887804   -0.04736000
 H         -4.36949921   -0.29539901   -0.83716500
 C         -1.59717500   -0.32781801   -0.48237300
 O         -2.72232890   -2.43607211   -0.94651800
 H         -2.33891106   -1.75032306    0.91819400
 C         -2.98521590    1.46065402    0.59532499
 H         -4.74782419   -3.13838792   -0.33421400
 O         -1.57956195   -0.00601500   -1.81735396
 O         -3.39084101    2.03290510   -0.61083603
 H         -3.18685389   -2.15875793   -1.74749100
 H         -1.56006098   -0.81879097   -2.34178090
 C         -4.60825920    2.77090693   -0.50609398
 C         -1.56571901    0.89959002    0.40499300
 H         -2.98665690    2.20813203    1.39603496
 H         -1.22122502    0.58828902    1.39394903
 O         -0.67950702    1.89499795   -0.05265500
 H         -1.00392401    2.20113301   -0.90973997
 C          2.13866210   -0.97218299    0.02394900
 C          3.41091800   -1.83364499   -0.00744500
 C          4.64787579   -0.92929602    0.09429400
 H          3.39697194   -2.54452705    0.82567400
 H          3.44200611   -2.40955210   -0.93801701
 C          4.66825724    0.04439200   -1.08974504
 C          3.39983010    0.90424800   -1.06426299
 H          5.55624819    0.68347698   -1.03099203
 H          4.72504711   -0.51238298   -2.03179598
 C          2.16584611   -0.00333300   -1.16349006
 H          1.25554895    0.60040802   -1.16454196
 H          2.19270396   -0.57433897   -2.09716010
 C          2.09850311   -0.17972800    1.33562398
 S          0.72110301   -2.11662889   -0.09293800
 C          4.59791708   -0.13737300    1.40610301
 H          5.54554176   -1.55564296    0.07436100
 C          3.33247590    0.72708303    1.43246198
 H          4.59905577   -0.82472402    2.25955391
 H          5.48767424    0.49597099    1.49276102
 H          3.28895307    1.28964698    2.37086606
 C          3.34719706    1.69807196    0.24745201
 H          1.18671203    0.42280000    1.37151599
 H          2.07238412   -0.87567401    2.18002295
 H          2.45180297    2.32889199    0.26884699
 H          3.40379310    1.59492195   -1.91374695
 H          4.21756315    2.35993195    0.31757501
 H         -0.41720501   -1.06186295   -0.23658200
 H         -4.54015303    3.50924397    0.30026799
 H         -5.45428085    2.10417390   -0.31846800
 H         -4.75058222    3.28032899   -1.45834899
