53
wb97x-d4 ma-def2-tzvp(-f) cpcm(dmso) E: -1515.68190413621, G: -1515.27168851
 C         -4.23428392   -2.05362391   -0.51440603
 C         -3.59831309   -0.68023098   -0.53273100
 H         -4.56617498   -2.30870795   -1.52263498
 O         -5.38124990   -2.09539104    0.32650399
 H         -3.48764300   -2.79097199   -0.19467200
 O         -3.08816099   -0.43866900    0.77960199
 C         -2.45968699   -0.58569503   -1.55977798
 H         -4.36048222    0.06702500   -0.77667397
 C         -1.42955005    0.43339700   -1.07875597
 O         -2.95896602   -0.25324100   -2.84986591
 H         -1.97239101   -1.55870605   -1.67575097
 C         -2.69709706    0.90004498    1.00301898
 H         -5.09461021   -1.86362803    1.21855903
 O         -0.59183401    0.92645401   -2.04270291
 O         -3.78103209    1.72032297    1.33406901
 H         -3.34431696    0.63256299   -2.78702807
 H         -0.57622498    0.32333401   -2.79927111
 C         -4.37650490    1.39887404    2.59209490
 C         -2.01776505    1.53065896   -0.22977200
 H         -1.98840201    0.84918803    1.83399200
 H         -1.23238301    2.21159792    0.11186300
 O         -2.94395900    2.23258901   -1.06201398
 H         -3.62536311    2.59794307   -0.47942999
 C          1.81906903   -0.60829997    0.40988299
 C          2.79019809   -1.22326696    1.42952299
 C          4.22655201   -0.79385298    1.09693503
 H          2.52272511   -0.89218998    2.43839502
 H          2.70962811   -2.31522703    1.40372002
 C          4.59278679   -1.27561402   -0.31141600
 C          3.62760997   -0.65849501   -1.32960701
 H          5.62291002   -0.98711598   -0.54787898
 H          4.53785086   -2.36894894   -0.35968900
 C          2.19380307   -1.09206200   -0.99607199
 H          1.49478400   -0.67520303   -1.72593296
 H          2.10880089   -2.18259692   -1.03781199
 C          1.92979705    0.92143500    0.47620299
 S          0.14163201   -1.16024995    0.87102801
 C          4.33095121    0.73463798    1.15686500
 H          4.90710020   -1.23948801    1.82954705
 C          3.36407208    1.35234404    0.14055200
 H          4.08961678    1.08812702    2.16561794
 H          5.35754299    1.04695594    0.93556702
 H          3.42828894    2.44441605    0.18562500
 C          3.72333598    0.87001699   -1.27005398
 H          1.23028696    1.37384403   -0.23131700
 H          1.65681195    1.26099396    1.48040795
 H          3.04146099    1.31608105   -2.00290799
 H          3.88131690   -1.00564003   -2.33649302
 H          4.73878193    1.19124901   -1.52711594
 H         -0.66110897   -0.30736700   -0.16633800
 H         -3.62236595    1.42215395    3.38566494
 H         -4.84280109    0.41153201    2.55980301
 H         -5.13504219    2.15670204    2.78308296
