53
wb97x-d4 ma-def2-tzvp(-f) cpcm(dmso) E: -1515.681893540469, G: -1515.2716571600001
 C         -4.24179602   -2.01212811   -0.57173699
 C         -3.59697604   -0.64278603   -0.58031601
 H         -4.56749582   -2.26148510   -1.58344102
 O         -5.39534283   -2.04968190    0.26031801
 H         -3.50222301   -2.75532389   -0.24908100
 O         -3.09734607   -0.40831399    0.73735797
 C         -2.44900107   -0.55272299   -1.59783804
 H         -4.35192394    0.11018700   -0.82897502
 C         -1.41305804    0.45251799   -1.10109794
 O         -2.93526101   -0.20573400   -2.88909793
 H         -1.97062194   -1.52974498   -1.71711004
 C         -2.69768310    0.92656600    0.96767998
 H         -5.11357498   -1.82407999    1.15550101
 O         -0.55688900    0.93845302   -2.05239701
 O         -3.77854300    1.75482297    1.28890705
 H         -3.30816388    0.68516397   -2.82281303
 H         -0.52653903    0.33044699   -2.80455399
 C         -4.39025021    1.43498802    2.53951097
 C         -2.00006294    1.55419600   -0.25668401
 H         -1.99833906    0.86830503    1.80602300
 H         -1.21222997    2.22736311    0.09445200
 O         -2.91141891    2.26597905   -1.09684598
 H         -3.59617209    2.63512611   -0.52061403
 C          1.80465996   -0.62723601    0.42976099
 C          2.75342202   -1.25031400    1.46554899
 C          4.19915104   -0.83570099    1.15530598
 H          2.47318912   -0.91501200    2.46953893
 H          2.66248107   -2.34146690    1.44006896
 C          4.58284903   -1.32295704   -0.24643400
 C          3.64025688   -0.69754899   -1.28049099
 H          5.61944008   -1.04503703   -0.46677601
 H          4.51778221   -2.41575098   -0.29439199
 C          2.19700408   -1.11622596   -0.96962500
 H          1.51403201   -0.69294399   -1.71101606
 H          2.10160089   -2.20586491   -1.01192403
 C          1.92937195    0.90139502    0.49635300
 S          0.11502900   -1.16268599    0.86513102
 C          4.31773615    0.69175702    1.21521997
 H          4.86348486   -1.28714705    1.89916301
 C          3.37305808    1.31763697    0.18318599
 H          4.06422997    1.04879200    2.21972609
 H          5.35066891    0.99378902    1.00966406
 H          3.44725299    2.40909004    0.22804800
 C          3.74991894    0.83003902   -1.22105300
 H          1.24590003    1.35992599   -0.22273600
 H          1.64377701    1.24477994    1.49574304
 H          3.08396196    1.28170705   -1.96503103
 H          3.90655804   -1.04834998   -2.28285408
 H          4.77232790    1.14121199   -1.46243405
 H         -0.66478801   -0.29800799   -0.17985199
 H         -4.86419821    0.45158100    2.49944806
 H         -5.14466476    2.19844389    2.72429800
 H         -3.64460111    1.44998896    3.34126711
