53
wb97x-d4 ma-def2-tzvp(-f) cpcm(dmso) E: -1515.681805288179, G: -1515.27157543
 C         -4.02640486   -2.01714897    0.90156800
 C         -3.47634506   -1.05754805   -0.13175000
 H         -4.20280695   -2.98666501    0.43155599
 O         -5.27187204   -1.57749403    1.43078399
 H         -3.28558993   -2.14548898    1.70055699
 O         -3.15244389    0.15282200    0.55341899
 C         -2.22556996   -1.62094903   -0.82606399
 H         -4.24389601   -0.86042702   -0.88768297
 C         -1.30699694   -0.46713901   -1.22038496
 O         -2.57876992   -2.42044210   -1.94813097
 H         -1.68508697   -2.28892303   -0.14858800
 C         -2.86192608    1.23612499   -0.30385199
 H         -5.12350321   -0.72042501    1.84906805
 O         -0.36127400   -0.75549901   -2.16786695
 O         -4.01933098    1.86233401   -0.77866799
 H         -3.00493693   -1.83691001   -2.59230900
 H         -0.21202201   -1.71098900   -2.20154691
 C         -4.77167320    2.52327991    0.23994800
 C         -2.04222703    0.80941302   -1.53923297
 H         -2.27782893    1.92797995    0.30923900
 H         -1.33444297    1.60653698   -1.78562605
 O         -2.86978602    0.52479798   -2.66981292
 H         -3.64287591    1.10394502   -2.60605597
 C          1.74705505    0.07593600    0.85892701
 C          2.17027998   -1.28922999    0.30219901
 C          3.65540695   -1.25738394   -0.08392100
 H          1.99206603   -2.05947995    1.05921698
 H          1.56294298   -1.53636003   -0.57198203
 C          3.88679504   -0.16763400   -1.13873196
 C          3.47943902    1.19608200   -0.56793398
 H          4.94255781   -0.15009800   -1.43126905
 H          3.30024600   -0.38688999   -2.03813410
 C          1.99233305    1.16687596   -0.19184899
 H          1.68539000    2.13555098    0.21493700
 H          1.38332498    0.96915400   -1.07852495
 C          2.58890605    0.38358200    2.10786295
 S          0.00132200    0.06108300    1.38857198
 C          4.49284697   -0.94835103    1.16221404
 H          3.94075894   -2.23299098   -0.49051300
 C          4.07739592    0.41367000    1.73170495
 H          4.34708595   -1.73034000    1.91594398
 H          5.55773115   -0.93428499    0.90467602
 H          4.66428280    0.63256800    2.62964010
 C          4.31450891    1.50270402    0.67990398
 H          2.28846192    1.35030401    2.52532101
 H          2.40932989   -0.38064501    2.87146711
 H          4.03648376    2.48223901    1.08478200
 H          3.64214206    1.97377896   -1.32128501
 H          5.37769604    1.54439604    0.41841999
 H         -0.65244198   -0.18587400   -0.01075700
 H         -5.17136478    1.80195403    0.95657200
 H         -5.59207010    3.03689408   -0.25913101
 H         -4.14329910    3.25160599    0.76310003
