53
wb97x-d4 ma-def2-tzvp(-f) cpcm(dmso) E: -1515.681770597659, G: -1515.2715559100002
 C         -4.20688915   -2.05024600    0.52637500
 C         -3.58080292   -0.86860597   -0.18312500
 H         -4.51341677   -2.79132605   -0.21424800
 O         -5.37212181   -1.67846203    1.25327694
 H         -3.46138501   -2.50619292    1.18982005
 O         -3.10024905    0.01879100    0.82709801
 C         -2.42299795   -1.29448199   -1.09894097
 H         -4.34297323   -0.36384001   -0.78616798
 C         -1.39815700   -0.16692500   -1.17413497
 O         -2.89800906   -1.65670705   -2.39012098
 H         -1.93694496   -2.19134092   -0.70264798
 C         -2.72690511    1.28941095    0.33796600
 H         -5.10853195   -1.01433206    1.90207696
 O         -0.52972400   -0.22808000   -2.23047090
 O         -3.82954311    2.13165307    0.15943600
 H         -3.27845597   -0.86011899   -2.78761601
 H         -0.50145900   -1.13058603   -2.57777500
 C         -4.47079277    2.50119710    1.38117003
 C         -1.99520898    1.20944202   -1.02014506
 H         -2.05475497    1.69446003    1.09938502
 H         -1.20918798    1.97021198   -1.04206300
 O         -2.88014698    1.39040303   -2.12787795
 H         -3.58097792    1.98969495   -1.83309197
 C          1.80455303   -0.29750800    0.70858502
 C          1.94270694    1.05617905    0.00043100
 C          3.38766789    1.24381006   -0.48150101
 H          1.25660801    1.10113704   -0.84920102
 H          1.66807103    1.85685205    0.69448799
 C          4.33202791    1.21224999    0.72545701
 C          4.20121813   -0.13780700    1.43932903
 H          5.36672497    1.36160898    0.39763099
 H          4.08397722    2.02672505    1.41528594
 C          2.75374293   -0.32734099    1.91722596
 H          2.65336299   -1.28405297    2.44085002
 H          2.48180509    0.46846300    2.61840296
 C          2.18579292   -1.42873704   -0.25356901
 S          0.11285600   -0.52366000    1.35393202
 C          3.75404692    0.11386500   -1.45164001
 H          3.47126603    2.20935392   -0.99091703
 C          3.62945604   -1.23608303   -0.73654199
 H          3.09092498    0.13918599   -2.32371593
 H          4.77882290    0.25108001   -1.81436300
 H          3.88644791   -2.04575205   -1.42728698
 C          4.57371807   -1.26682794    0.47081199
 H          2.08449507   -2.38974810    0.26060900
 H          1.50165105   -1.43510997   -1.10583794
 H          4.50020695   -2.23544693    0.97782302
 H          4.86589479   -0.16259401    2.30888009
 H          5.61122704   -1.14658296    0.13989700
 H         -0.66036499   -0.33140999    0.00923700
 H         -4.91357279    1.62815595    1.86631405
 H         -5.25355721    3.21262908    1.12203097
 H         -3.75213099    2.97334409    2.05917907
