53
wb97x-d4 ma-def2-tzvp(-f) cpcm(dmso) E: -1515.681790513285, G: -1515.27152019
 C         -4.03287792   -1.99076498    0.88243902
 C         -3.47626209   -1.03842294   -0.15410300
 H         -4.20941114   -2.96264291    0.41737500
 O         -5.27944994   -1.54538000    1.40412605
 H         -3.29550409   -2.11599898    1.68509305
 O         -3.15145898    0.17462900    0.52597201
 C         -2.22467804   -1.60981905   -0.84067702
 H         -4.24029779   -0.84310102   -0.91406101
 C         -1.30006194   -0.46132100   -1.23613405
 O         -2.57617903   -2.41336107   -1.96042502
 H         -1.68963206   -2.27665496   -0.15775700
 C         -2.85331202    1.25239396   -0.33535299
 H         -5.13019991   -0.68774599    1.82091296
 O         -0.35170001   -0.75767201   -2.17861605
 O         -4.00652409    1.87886298   -0.82015502
 H         -2.99772906   -1.83133304   -2.60899711
 H         -0.20709801   -1.71401703   -2.20818496
 C         -4.76419115    2.54572392    0.19053200
 C         -2.02838707    0.81671500   -1.56411004
 H         -2.27096796    1.94620001    0.27710399
 H         -1.31593096    1.60973001   -1.81041300
 O         -2.85095596    0.53024900   -2.69782209
 H         -3.62337589    1.11086500   -2.63924503
 C          1.73849499    0.08083000    0.87031901
 C          2.14847302   -1.29064500    0.31950399
 C          3.63795590   -1.28010297   -0.05058300
 H          1.95129299   -2.05760694    1.07514596
 H          1.54720902   -1.53000402   -0.56098902
 C          3.89610410   -0.19522600   -1.10416496
 C          3.50139189    1.17472899   -0.53968400
 H          4.95518017   -0.19275600   -1.38504601
 H          3.31672311   -0.40771100   -2.00980401
 C          2.01017809    1.16670299   -0.17927000
 H          1.71247900    2.14018202    0.22288600
 H          1.40750003    0.97616100   -1.07191205
 C          2.57079697    0.37816200    2.12796092
 S         -0.01336300    0.09089100    1.37877405
 C          4.46587181   -0.98112899    1.20435596
 H          3.91403699   -2.26019812   -0.45276400
 C          4.06351423    0.38742900    1.76761103
 H          4.30014515   -1.75979197    1.95739198
 H          5.53365707   -0.98272502    0.95873803
 H          4.64388084    0.59951401    2.67139506
 C          4.32675409    1.47169399    0.71701998
 H          2.27919698    1.34928501    2.54155207
 H          2.37254500   -0.38292500    2.89003801
 H          4.05728912    2.45536900    1.11764205
 H          3.68299007    1.94909501   -1.29214597
 H          5.39324713    1.49896896    0.46741500
 H         -0.64920503   -0.17752101   -0.02497100
 H         -4.13771915    3.27475190    0.71499598
 H         -5.17047024    1.82829499    0.90737599
 H         -5.57996082    3.05914402   -0.31628999
