53
wb97x-d4 ma-def2-tzvp(-f) cpcm(dmso) E: -1515.68772418449, G: -1515.27793051
 C         -4.99282503   -1.78862095    0.41009900
 C         -3.97190094   -0.76954001   -0.05748400
 H         -5.10644579   -2.56280804   -0.34880200
 O         -6.27446890   -1.19961202    0.60037899
 H         -4.63653994   -2.25318599    1.33775795
 O         -3.83917189    0.17863201    1.00375998
 C         -2.61294699   -1.41218603   -0.34496900
 H         -4.33416605   -0.27055800   -0.96248901
 C         -1.56493402   -0.33202299   -0.58394998
 O         -2.74687791   -2.21262097   -1.51293194
 H         -2.31482911   -2.01605797    0.51840299
 C         -2.99504209    1.27194905    0.70695603
 H         -6.17706108   -0.50268602    1.26095498
 O         -1.53047001    0.13728000   -1.86902797
 O         -3.41342092    1.99439204   -0.41084799
 H         -2.11647511   -2.94164801   -1.46886802
 H         -1.83398104   -0.58636498   -2.44315004
 C         -4.63705683    2.69923711   -0.20211001
 C         -1.56311500    0.77397901    0.45197299
 H         -3.01699591    1.90214801    1.60288894
 H         -1.20847905    0.35311699    1.39551997
 O         -0.70169502    1.83799899    0.11604500
 H         -1.05260706    2.25181293   -0.68363100
 C          2.16182303   -0.97017199   -0.00858300
 C          3.43710995   -1.82734895   -0.02969600
 C          4.67089415   -0.91894698    0.07461800
 H          3.42047811   -2.53453493    0.80656600
 H          3.47498298   -2.40734005   -0.95735699
 C          4.69309092    0.04870600   -1.11419201
 C          3.42200303    0.90504599   -1.09837198
 H          5.57871294    0.69102001   -1.05534303
 H          4.75536299   -0.51284403   -2.05304193
 C          2.19061303   -0.00553600   -1.19938397
 H          1.27865601    0.59631097   -1.20663798
 H          2.22169590   -0.57937700   -2.13111901
 C          2.11387300   -0.17312700    1.30044198
 S          0.74712598   -2.11931396   -0.12664799
 C          4.61265087   -0.12065900    1.38217700
 H          5.57050610   -1.54268003    0.06181500
 C          3.34401608    0.73915303    1.39861202
 H          4.61245918   -0.80355197    2.23920894
 H          5.49990702    0.51614797    1.46938205
 H          3.29378891    1.30589902    2.33418393
 C          3.36096811    1.70485997    0.20927000
 H          1.20025301    0.42600399    1.33148301
 H          2.08839202   -0.86654502    2.14696598
 H          2.46382499    2.33336711    0.22352600
 H          3.42831302    1.59172499   -1.95105696
 H          4.22914314    2.36951804    0.28014401
 H         -0.39255601   -1.05635297   -0.36008799
 H         -4.56424189    3.33718801    0.68537903
 H         -5.47294092    2.00424695   -0.08386100
 H         -4.79940510    3.31650090   -1.08486998
