53
wb97x-d4 ma-def2-tzvp(-f) cpcm(dmso) E: -1515.681698947195, G: -1515.2714737800002
 C         -4.13588476   -1.91837096    0.87583297
 C         -3.55082202   -0.99932098   -0.17934901
 H         -5.03702402   -1.45477498    1.29194498
 O         -3.20621490   -2.22587490    1.90912604
 H         -4.41491985   -2.86452699    0.40744799
 O         -3.17992496    0.20923901    0.48557401
 C         -2.33349609   -1.61611402   -0.89374602
 H         -4.32745981   -0.79480499   -0.92474800
 C         -1.34372497   -0.51548803   -1.25575399
 O         -2.74134398   -2.35389090   -2.04128695
 H         -1.84041595   -2.33859801   -0.23954500
 C         -2.82477307    1.26680303   -0.37852299
 H         -2.92373109   -1.39299798    2.30667400
 O         -0.38332900   -0.85077602   -2.17337704
 O         -3.94582391    1.93822396   -0.87883502
 H         -3.10190892   -1.71510899   -2.67328596
 H         -0.25810501   -1.80970299   -2.18173194
 C         -4.67316580    2.66176200    0.11469400
 C         -2.00596690    0.79359800   -1.59691596
 H         -2.22081709    1.93924499    0.23636700
 H         -1.25563300    1.55320406   -1.83475697
 O         -2.82807112    0.54596001   -2.74102902
 H         -3.57949901    1.15391803   -2.68408608
 C          1.66208196    0.03169800    0.88047701
 C          2.12182903   -1.32404995    0.33053800
 C          3.61126304   -1.26009905   -0.03477700
 H          1.94940305   -2.09769702    1.08550406
 H          1.53157997   -1.58384800   -0.55172199
 C          3.83339810   -0.16724899   -1.08796597
 C          3.38933897    1.18792605   -0.52438700
 H          4.89236212   -0.12731700   -1.36637998
 H          3.26377296   -0.39983201   -1.99489105
 C          1.89843702    1.12710297   -0.16824700
 H          1.56505501    2.08935595    0.23301201
 H          1.30620098    0.91594702   -1.06306005
 C          2.47979403    0.35856900    2.14043808
 S         -0.09016300   -0.01692100    1.38531494
 C          4.42512178   -0.93147498    1.22218895
 H          3.92344093   -2.22975397   -0.43594500
 C          3.97243094    0.42142501    1.78475201
 H          4.28631592   -1.71601999    1.97460794
 H          5.49280310   -0.89465499    0.97889900
 H          4.54215908    0.65412498    2.69022799
 C          4.20048809    1.51380301    0.73439997
 H          2.15223598    1.31870902    2.55270004
 H          2.30608392   -0.40874201    2.90230203
 H          3.89617991    2.48767900    1.13408697
 H          3.54535794    1.96829402   -1.27638996
 H          5.26606083    1.57772601    0.48754799
 H         -0.72016400   -0.26056200   -0.02879600
 H         -4.01378679    3.37129092    0.62529999
 H         -5.11485720    1.98030305    0.84538603
 H         -5.46217108    3.20266199   -0.40580800
