53
wb97x-d4 ma-def2-tzvp(-f) cpcm(dmso) E: -1515.681885965471, G: -1515.2714375100002
 C         -4.17543411   -2.00518799   -0.63542801
 C         -3.57826090   -0.61586601   -0.56933802
 H         -4.49056721   -2.21096611   -1.66025305
 O         -5.32815313   -2.12928200    0.18930100
 H         -3.41030312   -2.73807502   -0.35101900
 O         -3.08300209   -0.43755600    0.75858998
 C         -2.43781805   -0.43330300   -1.58419001
 H         -4.35897112    0.12408600   -0.77484798
 C         -1.42310500    0.56180799   -1.02896094
 O         -2.93901110   -0.01689200   -2.84892893
 H         -1.93701196   -1.38885105   -1.76755500
 C         -2.71722698    0.89190698    1.06154799
 H         -5.05442190   -1.95150495    1.09762001
 O         -0.57754302    1.11944103   -1.95004797
 O         -3.81834102    1.67561901    1.42306995
 H         -3.32904696    0.86035901   -2.72451997
 H         -0.54286200    0.56081003   -2.73923612
 C         -4.43779707    1.26168704    2.64181995
 C         -2.03180790    1.60180604   -0.12412100
 H         -2.01910210    0.80558300    1.89864194
 H         -1.25736797    2.26959109    0.26526099
 O         -2.95674706    2.34123611   -0.92527199
 H         -3.65321112    2.65790892   -0.33203599
 C          1.80842602   -0.62924302    0.38977501
 C          2.77089310   -1.32962501    1.36100900
 C          4.21599007   -0.92457300    1.03627300
 H          2.52396703   -1.04907095    2.39027905
 H          2.65736008   -2.41547203    1.27406502
 C          4.55299997   -1.33813906   -0.40083700
 C          3.59690094   -0.63709801   -1.37224603
 H          5.58891106   -1.06757605   -0.63336498
 H          4.46467113   -2.42501402   -0.50844401
 C          2.15400004   -1.04458201   -1.04551399
 H          1.46142006   -0.56610203   -1.74307501
 H          2.03422594   -2.12784791   -1.14708996
 C          1.96679103    0.89065599    0.53920197
 S          0.11950400   -1.15391004    0.83865798
 C          4.36725998    0.59461600    1.17900896
 H          4.89017010   -1.43015695    1.73504198
 C          3.40968704    1.29625905    0.20925599
 H          4.14658785    0.89896601    2.20830894
 H          5.40074015    0.88808697    0.96407598
 H          3.50774789    2.38178492    0.31319901
 C          3.74006200    0.88216400   -1.22970796
 H          1.27183199    1.40210402   -0.13186300
 H          1.71692502    1.18157101    1.56450605
 H          3.06488204    1.38840699   -1.92887104
 H          3.82928300   -0.93590498   -2.39955997
 H          4.76220608    1.18673694   -1.48039806
 H         -0.66395402   -0.23003900   -0.15228100
 H         -5.19664478    2.00669503    2.87694502
 H         -3.69839096    1.21966100    3.44843102
 H         -4.90733385    0.28228599    2.52512097
