53
wb97x-d4 ma-def2-tzvp(-f) cpcm(dmso) E: -1515.681783700869, G: -1515.2714284400001
 C         -4.33024979   -0.71161503    1.74371099
 C         -3.65140891   -0.64196700    0.38895801
 H         -5.17683411   -0.01645800    1.75565302
 O         -3.43490100   -0.43294799    2.81485605
 H         -4.70856524   -1.72386098    1.90056503
 O         -3.14825201    0.68620700    0.24258900
 C         -2.50709105   -1.66247904    0.24739200
 H         -4.40121794   -0.84629101   -0.38333401
 C         -1.42252898   -1.09183705   -0.65924197
 O         -2.99795389   -2.90624905   -0.24180800
 H         -2.07657504   -1.87860203    1.22788405
 C         -2.69472694    0.99609298   -1.05743802
 H         -3.08369207    0.45580301    2.67890000
 O         -0.52554297   -1.99810100   -1.15910196
 O         -3.74369001    1.35930395   -1.90928495
 H         -3.31495690   -2.74862099   -1.14301598
 H         -0.49219099   -2.77517796   -0.58364898
 C         -4.38820982    2.57804108   -1.53572905
 C         -1.96098602   -0.18164299   -1.73153698
 H         -2.00635195    1.83450997   -0.92097998
 H         -1.14665699    0.21577500   -2.34460592
 O         -2.83528495   -0.97709697   -2.53679299
 H         -3.51038194   -0.38109201   -2.89226198
 C          1.69949996    0.40571699    0.73149300
 C          1.91607201    0.59318298   -0.77620399
 C          3.38973689    0.34191701   -1.12308705
 H          1.27893496   -0.10147800   -1.32967699
 H          1.62755406    1.61017299   -1.06056905
 C          4.26751995    1.34220397   -0.36251199
 C          4.05774784    1.16197801    1.14580905
 H          5.32192612    1.18283498   -0.61394101
 H          4.01075792    2.36572790   -0.65794802
 C          2.58201909    1.40797698    1.49138498
 H          2.42539406    1.29443705    2.56939292
 H          2.29684901    2.42934895    1.21834803
 C          2.09616494   -1.01969004    1.13593400
 S         -0.02935700    0.76511300    1.19055998
 C          3.77231503   -1.08724403   -0.72027600
 H          3.52945590    0.47200900   -2.20120096
 C          3.57033706   -1.26661098    0.78856802
 H          3.15457296   -1.80776703   -1.26816905
 H          4.81768990   -1.28218997   -0.98408800
 H          3.84022689   -2.28726697    1.07877195
 C          4.44670677   -0.26492399    1.54823601
 H          1.93305004   -1.14916694    2.21051407
 H          1.46076000   -1.74004495    0.61352402
 H          4.31781912   -0.39850399    2.62812209
 H          4.67384911    1.88257205    1.69311798
 H          5.50322199   -0.44189700    1.31839597
 H         -0.73236698   -0.21896499    0.19662800
 H         -3.65354705    3.38573503   -1.45246005
 H         -4.91462994    2.46295094   -0.58555400
 H         -5.10203695    2.81017709   -2.32483792
