53
wb97x-d4 ma-def2-tzvp(-f) cpcm(dmso) E: -1515.689019968494, G: -1515.2779121800002
 C         -4.54477978   -2.21478009    0.29092801
 C         -3.69016910   -1.02579403   -0.10211900
 H         -4.12634802   -3.12253094   -0.14375301
 O         -5.87323713   -2.08763099   -0.20431399
 H         -4.54459381   -2.31371689    1.38344395
 O         -4.28503609    0.11603600    0.52013499
 C         -2.24521208   -1.16212296    0.38179100
 H         -3.70165396   -0.90669101   -1.19082201
 C         -1.50326300    0.13578500    0.11312200
 O         -1.63206995   -2.22725010   -0.33041900
 H         -2.24961805   -1.35427594    1.46007705
 C         -3.68848801    1.35163498    0.17917900
 H         -6.23779297   -1.27109301    0.15889700
 O         -1.05448604    0.27382901   -1.17234802
 O         -3.72790289    1.61628795   -1.19000196
 H         -0.85704798   -2.51938105    0.16711199
 H         -0.91509098   -0.62007701   -1.52673304
 C         -5.04984188    1.83639705   -1.68266702
 C         -2.21863508    1.36466897    0.63208801
 H         -4.25943613    2.10486197    0.73313099
 H         -2.22847795    1.31118298    1.72331405
 O         -1.57276702    2.56785011    0.27917799
 H         -1.62972903    2.65664601   -0.68151200
 C          2.13909197   -0.10929500    1.00523198
 C          2.14933491   -1.21229899   -0.05973100
 C          3.42451310   -1.10764694   -0.90618497
 H          2.09820890   -2.19017601    0.42954999
 H          1.26883101   -1.11628997   -0.70044303
 C          3.47037697    0.26464099   -1.58948505
 C          3.47122097    1.36592901   -0.52311403
 H          4.37006521    0.34415299   -2.20955896
 H          2.60365891    0.38356400   -2.24942207
 C          2.19558096    1.26226902    0.32324100
 H          2.18129110    2.04803610    1.08505702
 H          1.31205499    1.39424300   -0.30801100
 C          3.37070894   -0.27948001    1.90873396
 S          0.67092198   -0.24698800    2.08242893
 C          4.65127087   -1.27099299   -0.00235300
 H          3.41558599   -1.89801395   -1.66366196
 C          4.64896393   -0.17071000    1.06496894
 H          4.63566494   -2.25687790    0.47569299
 H          5.56755304   -1.20894599   -0.59968799
 H          5.51740789   -0.28877500    1.72083998
 C          4.69628191    1.20221400    0.38358599
 H          3.36652088    0.49247599    2.68527007
 H          3.32963896   -1.25407302    2.40642405
 H          4.71060896    1.99559999    1.13926601
 H          3.49910307    2.34796500   -1.00653398
 H          5.61464691    1.29348695   -0.20674799
 H         -0.40316600    0.01375400    0.97598499
 H         -4.95106411    2.14294004   -2.72322392
 H         -5.54419613    2.62852597   -1.11002100
 H         -5.64500713    0.92093098   -1.62580299
