53
wb97x-d4 ma-def2-tzvp(-f) cpcm(dmso) E: -1515.687750016987, G: -1515.2777649500001
 C         -4.81595707   -1.86699104   -0.26644400
 C         -3.82638097   -0.71894997   -0.21071900
 H         -5.81297398   -1.46035194   -0.46905801
 O         -4.82240820   -2.64793396    0.92433000
 H         -4.53973007   -2.53485894   -1.08272302
 O         -4.25039387    0.13731700    0.85766798
 C         -2.38604999   -1.17781305    0.06240400
 H         -3.86471105   -0.17992000   -1.16430199
 C         -1.50567901    0.04148900    0.20733400
 O         -1.91500497   -2.05894089   -0.93895400
 H         -2.37632608   -1.72783899    1.00579298
 C         -3.52051902    1.33306599    0.98242700
 H         -5.10868597   -2.07714391    1.64751697
 O         -1.14474106    0.54841000   -1.01396799
 O         -3.61194396    2.14901209   -0.15069000
 H         -1.71504200   -1.53829706   -1.72796798
 H         -0.76053703    1.42827797   -0.88404500
 C         -4.90722609    2.72500205   -0.32944700
 C         -2.02766204    1.04903495    1.21704102
 H         -3.94894600    1.84248900    1.85250199
 H         -1.93421698    0.60906500    2.21302795
 O         -1.27126598    2.24577808    1.18138397
 H         -1.75491202    2.87580109    0.62743402
 C          2.16582894   -0.67892498    0.64018101
 C          2.34514594    0.84307498    0.70469099
 C          3.57276201    1.26057100   -0.11711400
 H          1.44864094    1.33659506    0.31809500
 H          2.46594906    1.14990306    1.74842799
 C          4.82051420    0.58068198    0.45793301
 C          4.64974403   -0.94121802    0.39220399
 H          5.70745897    0.88141203   -0.11079700
 H          4.97323895    0.89611298    1.49620998
 C          3.42001104   -1.35530901    1.21294498
 H          3.29706097   -2.44301105    1.18240798
 H          3.55174994   -1.06318200    2.26024103
 C          1.98604298   -1.11529505   -0.81870002
 S          0.75119197   -1.21121597    1.66461098
 C          3.37771010    0.82907802   -1.57514596
 H          3.68609309    2.34822798   -0.06430800
 C          3.21169400   -0.69338000   -1.64190698
 H          2.49330997    1.32140696   -1.99531400
 H          4.24137783    1.13650298   -2.17527795
 H          3.06720400   -1.00423205   -2.68175197
 C          4.46164894   -1.37050104   -1.06792295
 H          1.86112702   -2.20217609   -0.85815400
 H          1.08113205   -0.66250199   -1.23124099
 H          4.35839319   -2.45969200   -1.12845397
 H          5.53511715   -1.43108499    0.81007600
 H          5.34382820   -1.09060895   -1.65443206
 H         -0.36515999   -0.49340901    0.84430701
 H         -5.64928389    1.95094204   -0.54089999
 H         -4.83521223    3.40444207   -1.17759395
 H         -5.20300102    3.28109598    0.56613898
