53
wb97x-d4 ma-def2-tzvp(-f) cpcm(dmso) E: -1515.687560444621, G: -1515.2774620500002
 C         -3.31662893   -0.29140601    2.25862408
 C         -3.16138291   -0.16836600    0.75386399
 H         -4.28388786    0.13402800    2.54779601
 O         -2.25624299    0.33750799    2.97128797
 H         -3.30319810   -1.34607100    2.53432798
 O         -3.19552493    1.23257995    0.45720899
 C         -1.83767402   -0.76319802    0.24586999
 H         -4.00224113   -0.67873299    0.27024499
 C         -1.69061196   -0.45911899   -1.22699797
 O         -1.75082004   -2.14815593    0.51708698
 H         -1.02510905   -0.27631301    0.78823900
 C         -3.17029810    1.55069399   -0.91240400
 H         -2.28374004    1.27987301    2.76615310
 O         -2.38620806   -1.35632801   -1.99790800
 O         -4.26234388    1.03115296   -1.61640298
 H         -2.33773398   -2.61185503   -0.09458500
 H         -2.43529797   -1.00825703   -2.90100503
 C         -5.50180912    1.66391301   -1.29301798
 C         -1.89878905    1.00351000   -1.58008504
 H         -3.17726707    2.64545393   -0.95377803
 H         -1.05415702    1.57383704   -1.18747306
 O         -1.94659996    1.17781198   -2.98522592
 H         -2.88033390    1.21821702   -3.23863196
 C          2.14134908   -0.60048199   -0.77390403
 C          3.58541393   -0.74438602   -1.28129005
 C          4.56697798   -0.46472299   -0.13492601
 H          3.73912501   -1.75709796   -1.66861498
 H          3.75846100   -0.04205500   -2.10332704
 C          4.35049295    0.96033502    0.38597399
 C          2.91275811    1.10357904    0.89754498
 H          5.05920410    1.17348695    1.19386494
 H          4.53633404    1.68522799   -0.41455001
 C          1.93497396    0.82611197   -0.25237101
 H          0.90654403    0.94915301    0.10008100
 H          2.09409499    1.53865194   -1.06777000
 C          1.91400802   -1.60588706    0.36157799
 S          1.05627096   -0.95782101   -2.19960189
 C          4.32855701   -1.46352804    1.00256205
 H          5.58935213   -0.56953102   -0.51217401
 C          2.88955212   -1.32245803    1.51110494
 H          4.50193691   -2.48571301    0.64787900
 H          5.03466702   -1.27375901    1.81857598
 H          2.71002293   -2.04173994    2.31686997
 C          2.66564012    0.10293400    2.03165197
 H          0.88302398   -1.53779900    0.71754801
 H          2.06384993   -2.62104893   -0.01927400
 H          1.64104903    0.20752101    2.40650606
 H          2.75223804    2.12316203    1.26297498
 H          3.34519100    0.30788100    2.86616707
 H         -0.34057099   -0.68240303   -1.54928005
 H         -5.78072405    1.46183801   -0.25564101
 H         -6.25245380    1.24457705   -1.96143496
 H         -5.42943716    2.74519300   -1.44990897
