53
wb97x-d4 ma-def2-tzvp(-f) cpcm(dmso) E: -1515.687080743588, G: -1515.27745894
 C         -4.54688311   -2.05559397   -0.29186001
 C         -3.69415092   -0.81061602   -0.38286600
 H         -4.00300884   -2.88738108   -0.74802500
 O         -5.77350998   -1.81593597   -0.97943997
 H         -4.73055077   -2.28739905    0.76397300
 O         -4.31102610    0.19341800    0.42563501
 C         -2.27139592   -1.06209803    0.13130000
 H         -3.64633799   -0.47709399   -1.42511106
 C         -1.51159704    0.25435600    0.15131900
 O         -1.63188601   -1.97248697   -0.75222701
 H         -2.32548499   -1.46390796    1.14841700
 C         -3.69176793    1.46094596    0.37131700
 H         -6.31241798   -2.61167908   -0.90812099
 O         -1.01621401    0.63456398   -1.06658995
 O         -3.67540598    2.00456595   -0.91490197
 H         -0.91039801   -2.40343094   -0.27687100
 H         -0.84766603   -0.17667900   -1.57425106
 C         -4.97453785    2.35554004   -1.39136398
 C         -2.24104595    1.36558998    0.87349302
 H         -4.27990818    2.09305406    1.04590702
 H         -2.29450011    1.09739995    1.93143201
 O         -1.57431805    2.60580707    0.79132402
 H         -1.60105503    2.88706589   -0.13289399
 C          2.11289501   -0.24916700    1.05945301
 C          2.10222697   -1.30804396   -0.04962900
 C          3.39651799   -1.22064495   -0.86860502
 H          2.00173211   -2.30186105    0.39821601
 H          1.24008203   -1.14986706   -0.70333600
 C          3.50517011    0.17455900   -1.49559700
 C          3.52829504    1.23246896   -0.38615501
 H          4.41797781    0.24476600   -2.09737110
 H          2.65514207    0.35186601   -2.16413999
 C          2.23491311    1.14596999    0.43579501
 H          2.24010611    1.89948905    1.22971404
 H          1.36845803    1.34016395   -0.20223600
 C          3.32142591   -0.50083297    1.97559297
 S          0.62270701   -0.37815699    2.10846901
 C          4.59923697   -1.46603203    0.04913400
 H          3.37154102   -1.98005199   -1.65681398
 C          4.61802721   -0.40832001    1.15835905
 H          4.53741503   -2.46843100    0.48750100
 H          5.52824020   -1.41623402   -0.52940398
 H          5.46905613   -0.58530498    1.82381105
 C          4.73097706    0.98638898    0.53159702
 H          3.33204103    0.23971701    2.78206205
 H          3.23602009   -1.49189103    2.43374205
 H          4.76445580    1.74932897    1.31737006
 H          3.60174799    2.23063207   -0.83019602
 H          5.66173983    1.06267095   -0.04125900
 H         -0.43699399   -0.01767200    1.01223099
 H         -4.83458710    2.85771894   -2.34777904
 H         -5.46908283    3.03408504   -0.68775499
 H         -5.59241009    1.46467805   -1.53236306
