53
wb97x-d4 ma-def2-tzvp(-f) cpcm(dmso) E: -1515.687699338029, G: -1515.27740898
 C         -3.40705395   -0.17968500    2.31980801
 C         -3.23362303   -0.13982999    0.81264502
 H         -4.39274693    0.22801100    2.56997108
 O         -2.38053489    0.52727199    3.00887990
 H         -3.36173701   -1.21521294    2.65798306
 O         -3.30871511    1.23914099    0.43316600
 C         -1.88941300   -0.73631197    0.35529900
 H         -4.05188179   -0.70396602    0.35009199
 C         -1.72472894   -0.48098999   -1.12364805
 O         -1.79728699   -2.11040998    0.67749298
 H         -1.08965302   -0.22448900    0.89361900
 C         -3.27626896    1.47212994   -0.96194500
 H         -2.43307495    1.45271695    2.74101496
 O         -2.39934111   -1.40005505   -1.88578403
 O         -4.32155514    0.84466499   -1.63684499
 H         -2.38799810   -2.59693599    0.08756500
 H         -2.55444503   -1.00712502   -2.75938702
 C         -5.59977579    1.40673900   -1.34204805
 C         -1.94141304    0.96477997   -1.51905298
 H         -3.34287190    2.56025791   -1.07163894
 H         -1.15869904    1.57060003   -1.05398905
 O         -1.93275106    1.10573006   -2.92948389
 H         -1.00967300    1.08932805   -3.21821189
 C          2.12092590   -0.48956701   -0.80945599
 C          3.54989696   -0.60002202   -1.36408603
 C          4.56146908   -0.39628401   -0.22830901
 H          3.69078207   -1.58519006   -1.82086301
 H          3.70258498    0.15418300   -2.14332390
 C          4.35995913    0.99036199    0.39257100
 C          2.93661189    1.09730995    0.95128798
 H          5.08986807    1.14954901    1.19396901
 H          4.52536011    1.76741803   -0.36218500
 C          1.92745304    0.89766598   -0.18837500
 H          0.90765297    0.99188697    0.19733100
 H          2.06465912    1.66489196   -0.95686698
 C          1.91917896   -1.56721103    0.26301801
 S          0.99279398   -0.76213199   -2.21985888
 C          4.35214710   -1.47157502    0.84356302
 H          5.57350397   -0.47452700   -0.63840199
 C          2.92812109   -1.36539102    1.40056396
 H          4.51359892   -2.46641397    0.41352099
 H          5.08099318   -1.33969605    1.65092897
 H          2.76884103   -2.13753200    2.16023707
 C          2.72195101    0.02211600    2.02179599
 H          0.89845699   -1.51477206    0.65163702
 H          2.05009389   -2.55582595   -0.18808800
 H          1.70925701    0.10050000    2.43352509
 H          2.78680611    2.08963203    1.38909900
 H          3.42627311    0.17119201    2.84760904
 H         -0.37092999   -0.66490901   -1.45914102
 H         -5.60128498    2.48266196   -1.54831600
 H         -5.87304306    1.23618400   -0.29708201
 H         -6.31873798    0.90913600   -1.99180603
