53
wb97x-d4 ma-def2-tzvp(-f) cpcm(dmso) E: -1515.688702351159, G: -1515.27900971
 C         -4.78145790   -1.92246699   -0.44818899
 C         -3.79238605   -0.77436697   -0.47061899
 H         -4.43897104   -2.70950198   -1.11998403
 O         -6.06663704   -1.51427400   -0.90426302
 H         -4.83971596   -2.32753992    0.56963402
 O         -4.27767277    0.18973599    0.46918601
 C         -2.38676000   -1.20492601   -0.04939000
 H         -3.75809407   -0.33579901   -1.47348106
 C         -1.50198901    0.02507400    0.05339100
 O         -1.86689699   -2.09041500   -1.03087902
 H         -2.44406009   -1.68829000    0.93210101
 C         -3.54333901    1.39633799    0.51294702
 H         -6.36649513   -0.80416101   -0.32330599
 O         -1.02316499    0.47840899   -1.14553702
 O         -3.53129792    2.06978989   -0.70931703
 H         -1.12051201   -2.56483507   -0.63967597
 H         -0.96010900   -0.28838301   -1.73904705
 C         -4.80542612    2.60247898   -1.07072794
 C         -2.08535910    1.11900198    0.92150998
 H         -4.03756618    2.00223994    1.28027296
 H         -2.11304307    0.75100899    1.94976294
 O         -1.31604505    2.30039096    0.92034698
 H         -1.37130594    2.68028903    0.03340000
 C          2.10257196   -0.69455200    0.84102100
 C          2.22349095   -1.19936895   -0.60166597
 C          3.53129697   -0.68686497   -1.22222304
 H          2.20462990   -2.29382300   -0.60786098
 H          1.36828899   -0.84846699   -1.18597806
 C          3.53704691    0.84648103   -1.21066904
 C          3.42712092    1.34830201    0.23474599
 H          4.46061802    1.21931100   -1.66723299
 H          2.69878602    1.22865498   -1.80422103
 C          2.11714911    0.83816302    0.84931099
 H          2.01464391    1.19712305    1.87833095
 H          1.26375794    1.21606696    0.27994999
 C          3.29464793   -1.21395600    1.65928805
 S          0.58914101   -1.33204806    1.64182305
 C          4.71827602   -1.21068096   -0.40514401
 H          3.60374808   -1.04927802   -2.25284410
 C          4.60506392   -0.70884401    1.03930497
 H          4.73005486   -2.30629706   -0.42207500
 H          5.65920401   -0.86478800   -0.84703499
 H          5.44528723   -1.08836997    1.62963700
 C          4.61429024    0.82408297    1.05104995
 H          3.20953608   -0.86441100    2.69342804
 H          3.28273511   -2.30905795    1.67494798
 H          4.55159092    1.19058895    2.08178091
 H          3.42416596    2.44306993    0.24632400
 H          5.55386782    1.19509900    0.62701398
 H         -0.43450201   -0.50276399    0.79806900
 H         -5.18664122    3.25232196   -0.27555400
 H         -5.52410507    1.80085802   -1.26161206
 H         -4.65745306    3.18364906   -1.98004496
