53
wb97x-d4 ma-def2-tzvp(-f) cpcm(dmso) E: -1515.68718170565, G: -1515.2772989100001
 C         -3.53416300   -0.70680898   -2.24205089
 C         -3.19779491    0.09631600   -0.99939102
 H         -4.59241581   -0.55412197   -2.48145700
 O         -3.24644804   -2.09322000   -2.09453201
 H         -2.93298697   -0.34359899   -3.07578611
 O         -4.01221609   -0.42858800    0.05528300
 C         -1.71745098   -0.01384300   -0.59780002
 H         -3.44859695    1.14730096   -1.18382096
 C         -1.51040900    0.70981199    0.71299797
 O         -0.87149698    0.47419000   -1.62028503
 H         -1.48200297   -1.07092202   -0.45775899
 C         -3.93124890    0.27562499    1.26951504
 H         -3.80202699   -2.43283892   -1.38259101
 O         -1.36900103    2.06073189    0.52222800
 O         -4.34858990    1.60704195    1.15998602
 H         -0.91437501    1.43933797   -1.61078000
 H         -1.43388796    2.50091004    1.38308501
 C         -5.75320721    1.74424803    0.93684697
 C         -2.48949599    0.29361001    1.79950094
 H         -4.58132982   -0.26933500    1.96257603
 H         -2.24273610   -0.72699898    2.10219193
 O         -2.37273908    1.13590705    2.93199992
 H         -3.06318498    1.81117201    2.86061692
 C          2.17703795   -0.33283699    0.86591297
 C          3.49724007   -0.67216802    1.57599998
 C          4.62069416   -0.81116903    0.53859198
 H          3.74391198    0.11811200    2.29263592
 H          3.38456202   -1.60710001    2.13517594
 C          4.27396297   -1.93271005   -0.44645199
 C          2.95863199   -1.59742796   -1.15824103
 H          5.07991982   -2.04562092   -1.18000495
 H          4.17829990   -2.88495803    0.08725200
 C          1.83770502   -1.45918906   -0.11826000
 H          0.89068198   -1.23897099   -0.61713600
 H          1.71507096   -2.39669394    0.43322399
 C          2.34344912    0.98665202    0.10428400
 S          0.90193301   -0.19148600    2.16501594
 C          4.77731895    0.50899500   -0.22578000
 H          5.55385303   -1.05045700    1.05867100
 C          3.46236610    0.84528202   -0.93781900
 H          5.04366589    1.31415498    0.46817699
 H          5.58895111    0.42276400   -0.95664698
 H          3.56714392    1.79165304   -1.47842097
 C          3.11013007   -0.27693701   -1.92128897
 H          1.40231705    1.24830306   -0.38633901
 H          2.58628106    1.78600705    0.81162298
 H          2.17807198   -0.03780600   -2.44495893
 H          2.70053601   -2.40032291   -1.85646200
 H          3.89754701   -0.37000799   -2.67760301
 H         -0.30229801    0.25098199    1.26822495
 H         -6.02698898    1.36400497   -0.05065600
 H         -5.97863817    2.80823493    0.99460101
 H         -6.31555223    1.20479000    1.70610702
