53
wb97x-d4 ma-def2-tzvp(-f) cpcm(dmso) E: -1515.687430797366, G: -1515.27729715
 C         -4.16226196   -1.21944904    1.75523400
 C         -3.57395792   -0.60076100    0.50117898
 H         -5.08726215   -0.68925297    2.00765896
 O         -3.25498199   -1.19998002    2.85229111
 H         -4.40198183   -2.26473904    1.55897701
 O         -3.28543305    0.76639801    0.81951600
 C         -2.27993107   -1.29364097    0.04569900
 H         -4.31954813   -0.65358901   -0.30049399
 C         -1.69998598   -0.52973199   -1.12150896
 O         -2.50009108   -2.65590191   -0.26523501
 H         -1.56987798   -1.26368999    0.87412298
 C         -2.83569002    1.54606104   -0.26075399
 H         -3.06467009   -0.27678901    3.05827188
 O         -2.31907392   -0.86923599   -2.29873490
 O         -3.77294588    1.64314699   -1.29510200
 H         -2.96636200   -2.70021200   -1.11026895
 H         -2.05715799   -0.22815400   -2.97655106
 C         -4.92376184    2.41586399   -0.94832301
 C         -1.54915798    0.95892799   -0.86600399
 H         -2.63432789    2.53589606    0.16319500
 H         -0.75801098    1.10504997   -0.12774500
 O         -1.18915701    1.63939202   -2.05452490
 H         -2.00118303    2.00907111   -2.43095708
 C          2.11459708   -0.86803102   -0.60862702
 C          3.45523691   -1.60982096   -0.73645800
 C          4.51604605   -0.91475999    0.12868500
 H          3.33118010   -2.64931798   -0.41593999
 H          3.77245092   -1.61914301   -1.78465903
 C          4.69004011    0.53421402   -0.33861899
 C          3.35576010    1.27530503   -0.20476501
 H          5.45759296    1.03112102    0.26493800
 H          5.02655602    0.55450898   -1.38122106
 C          2.29925203    0.58135200   -1.07407200
 H          1.34847403    1.11668897   -1.00646698
 H          2.60792398    0.58846200   -2.12409711
 C          1.67550194   -0.88739800    0.85875303
 S          0.92680299   -1.76047599   -1.67199898
 C          4.06850576   -0.92988098    1.59485698
 H          5.46380615   -1.45309496    0.02664000
 C          2.73203397   -0.19162899    1.72767103
 H          3.96303892   -1.96313703    1.94394696
 H          4.82653809   -0.44632500    2.22089696
 H          2.40107203   -0.20797700    2.77113008
 C          2.90143895    1.25933397    1.25975800
 H          0.71514398   -0.37504399    0.96857500
 H          1.53688395   -1.92303205    1.18445504
 H          1.95294404    1.79880202    1.36215794
 H          3.47278690    2.31005096   -0.54312903
 H          3.64043999    1.77032495    1.88670802
 H         -0.39108300   -1.02868700   -1.26666701
 H         -5.50205803    1.91819000   -0.16572300
 H         -5.52746677    2.50270891   -1.85052299
 H         -4.62462616    3.41201091   -0.60614800
