53
wb97x-d4 ma-def2-tzvp(-f) cpcm(dmso) E: -1515.687547350296, G: -1515.27724869
 C         -3.26608896    0.05809900    2.21216202
 C         -3.13199210    0.05303600    0.69804901
 H         -2.39510202    0.55228502    2.65445304
 O         -3.34687710   -1.30450702    2.64520502
 H         -4.17005587    0.60659897    2.49370098
 O         -3.13772297    1.42280900    0.30637401
 C         -1.82307994   -0.60670203    0.23072501
 H         -3.98112011   -0.47785401    0.25401700
 C         -1.67914605   -0.41721201   -1.26455605
 O         -1.81156898   -2.00319099    0.47757700
 H         -0.99133497   -0.10403100    0.73909998
 C         -3.12358189    1.62668598   -1.09336901
 H         -3.15334105   -1.33996701    3.58886600
 O         -2.40696907   -1.30517995   -2.01376700
 O         -4.22928715    1.06613803   -1.73319197
 H         -2.23411798   -2.14125705    1.34236395
 H         -2.47554111   -2.12294793   -1.49321902
 C         -5.45012379    1.75088704   -1.45154703
 C         -1.85268104    1.01944304   -1.71163797
 H         -3.11651397    2.71469593   -1.21975398
 H         -1.00979602    1.59554303   -1.32470298
 O         -1.84679306    1.16048300   -3.11477208
 H         -2.65262008    0.74433202   -3.44887900
 C          2.13860989   -0.64705300   -0.79315400
 C          3.58167911   -0.86040097   -1.27924502
 C          4.56525993   -0.49914300   -0.15702599
 H          3.71863008   -1.90543997   -1.57698703
 H          3.76987791   -0.23573500   -2.15852904
 C          4.37465096    0.97043800    0.23507500
 C          2.93822289    1.18532097    0.72437203
 H          5.08491993    1.24118805    1.02409101
 H          4.57648802    1.61764300   -0.62579697
 C          1.95871794    0.82407302   -0.40025601
 H          0.93252498    0.99676698   -0.06324600
 H          2.13139701    1.45853901   -1.27513099
 C          1.88795400   -1.54255104    0.42552400
 S          1.04725504   -1.10278201   -2.18584704
 C          4.30341387   -1.38876796    1.06296206
 H          5.58654404   -0.65647799   -0.51862103
 C          2.86555910   -1.17645502    1.54975998
 H          4.45767403   -2.44139409    0.80032003
 H          5.01025581   -1.14170802    1.86282802
 H          2.67075300   -1.81857896    2.41506696
 C          2.66716909    0.29289800    1.94158399
 H          0.85759401   -1.42205405    0.76959199
 H          2.01801896   -2.59063792    0.13802800
 H          1.64303899    0.44959900    2.29898906
 H          2.79524302    2.23586106    0.99762601
 H          3.34655190    0.55804902    2.75908804
 H         -0.34382600   -0.70242500   -1.57238197
 H         -5.36312723    2.80983090   -1.71748602
 H         -5.71334696    1.66097105   -0.39412600
 H         -6.22226000    1.28224003   -2.06026793
