53
wb97x-d4 ma-def2-tzvp(-f) cpcm(dmso) E: -1515.687564388222, G: -1515.27717884
 C         -4.46351290   -2.34883094    0.64796197
 C         -3.63375807   -1.18937695    0.13434500
 H         -4.03031015   -3.28622794    0.29987299
 O         -5.79810286   -2.29686189    0.15518400
 H         -4.45348501   -2.34190011    1.74500000
 O         -4.24354792   -0.00132300    0.65375900
 C         -2.17895508   -1.25550199    0.61900902
 H         -3.65954494   -1.17256904   -0.96070200
 C         -1.46837103    0.00730000    0.18463600
 O         -1.51916099   -2.42108202    0.16468300
 H         -2.18372893   -1.29404700    1.71232295
 C         -3.68466902    1.20138204    0.18443801
 H         -6.18156004   -1.46146595    0.44936800
 O         -1.04682302   -0.07724300   -1.11566305
 O         -3.77387905    1.34598696   -1.20410299
 H         -1.33122396   -2.31313109   -0.77704197
 H         -0.82009101    0.81448501   -1.42074502
 C         -5.11264992    1.52847302   -1.67007804
 C         -2.19574499    1.28855395    0.55481797
 H         -4.24778080    1.99546695    0.68674600
 H         -2.13746309    1.41278601    1.63907504
 O         -1.57935798    2.40445805   -0.06226500
 H         -2.10052705    2.62506700   -0.84822798
 C          2.18474102    0.08959200    0.98753798
 C          2.15264702   -1.14901304    0.08495200
 C          3.38680005   -1.15974498   -0.82586402
 H          2.13323212   -2.04990292    0.70642501
 H          1.24123299   -1.14176905   -0.51822299
 C          3.39086294    0.10582900   -1.69129801
 C          3.43634510    1.34382904   -0.78887397
 H          4.25868988    0.09931500   -2.36004400
 H          2.49282193    0.13288200   -2.31884003
 C          2.20524311    1.35692000    0.12564801
 H          2.22446394    2.23787999    0.77484399
 H          1.29334295    1.41095197   -0.47514799
 C          3.45671201    0.05047500    1.84813297
 S          0.76154399    0.10002700    2.13194299
 C          4.65433311   -1.19689405    0.03507900
 H          3.34940100   -2.04599810   -1.46760094
 C          4.69409609    0.04097800    0.93873298
 H          4.66605377   -2.10711789    0.64499199
 H          5.54290295   -1.21854496   -0.60551703
 H          5.59219599    0.01422700    1.56410599
 C          4.70374584    1.30573404    0.07217600
 H          3.48187590    0.92389500    2.50842905
 H          3.44665790   -0.84443003    2.47902894
 H          4.75059223    2.19664788    0.70839202
 H          3.43418097    2.24972010   -1.40377796
 H          5.59286880    1.31152403   -0.56793100
 H         -0.34689599    0.04421100    1.03978002
 H         -5.04813194    1.74346101   -2.73571205
 H         -5.58514690    2.36874604   -1.15073597
 H         -5.70316887    0.62217402   -1.51302600
