53
wb97x-d4 ma-def2-tzvp(-f) cpcm(dmso) E: -1515.686622460778, G: -1515.27708292
 C         -4.63613892   -1.69803500   -1.21883500
 C         -3.72674799   -0.60104799   -0.69775599
 H         -5.63422918   -1.27690399   -1.38345003
 O         -4.70099592   -2.81853008   -0.34259099
 H         -4.24968719   -2.06124806   -2.17151403
 O         -4.28650379   -0.16613500    0.54641598
 C         -2.28299093   -1.07939506   -0.47398299
 H         -3.72481203    0.22361900   -1.42001605
 C         -1.49679303    0.01800900    0.20594600
 O         -1.68054104   -1.49033201   -1.68577695
 H         -2.30718994   -1.94974005    0.18502200
 C         -3.63147712    0.94308698    1.12651801
 H         -5.07081699   -2.51319289    0.49461699
 O         -1.04949105    0.95967698   -0.68438900
 O         -3.64576697    2.06950402    0.30680099
 H         -1.47859204   -0.70016003   -2.20405102
 H         -0.88033497    1.78064597   -0.19679500
 C         -4.95461416    2.60999799    0.12391500
 C         -2.17324805    0.56369197    1.44076300
 H         -4.17929411    1.13880897    2.05656099
 H         -2.21402097   -0.23560899    2.18946290
 O         -1.39802396    1.65754700    1.89306700
 H         -1.86711800    2.10827494    2.60574698
 C          2.13938093   -0.77752101    0.59687603
 C          3.38946700   -1.54805899    1.04727197
 C          4.63309908   -0.95148301    0.37303400
 H          3.48791790   -1.48803103    2.13643289
 H          3.28642392   -2.60463691    0.77868098
 C          4.49256802   -1.05831003   -1.14989698
 C          3.24627709   -0.28916901   -1.60377598
 H          5.38474512   -0.64801401   -1.63581300
 H          4.41153908   -2.11021805   -1.44604099
 C          2.00643396   -0.88854802   -0.92648399
 H          1.10775495   -0.36122400   -1.25580704
 H          1.89500701   -1.94145596   -1.20446801
 C          2.28756309    0.69615799    0.99283898
 S          0.70586801   -1.54206705    1.43217897
 C          4.77294207    0.52214199    0.77135402
 H          5.51566696   -1.50914395    0.70268101
 C          3.52876711    1.29391801    0.31631899
 H          4.88841677    0.60729700    1.85773695
 H          5.66998196    0.95037103    0.31068200
 H          3.62069011    2.34599710    0.60536200
 C          3.38106108    1.18585598   -1.20598197
 H          1.39366698    1.25001299    0.69293100
 H          2.37461996    0.77283400    2.08129907
 H          2.49821591    1.74515402   -1.53598404
 H          3.13518190   -0.37078401   -2.68988705
 H          4.25396681    1.62805295   -1.69881296
 H         -0.39222601   -0.67216402    0.74297100
 H         -5.58100510    1.93284595   -0.46317300
 H         -4.83433914    3.55106091   -0.41131699
 H         -5.43021679    2.79659295    1.09311104
