53
wb97x-d4 ma-def2-tzvp(-f) cpcm(dmso) E: -1515.687384982335, G: -1515.2770821400002
 C         -3.52810311   -2.45249295   -0.30843401
 C         -3.22316790   -0.96686399   -0.36196801
 H         -4.59306812   -2.59846401   -0.52042198
 O         -3.17912889   -3.03710890    0.94218302
 H         -2.94629908   -2.96623492   -1.07389605
 O         -4.01329708   -0.35966799    0.66689003
 C         -1.73864496   -0.65316898   -0.11484400
 H         -3.51939988   -0.58133900   -1.34430599
 C         -1.55421400    0.84526801   -0.03159400
 O         -0.92250901   -1.23745000   -1.11132300
 H         -1.45097601   -1.09572697    0.84117198
 C         -3.96122909    1.04425895    0.70234001
 H         -3.70970893   -2.60677099    1.62355006
 O         -1.44498205    1.41024303   -1.27638900
 O         -4.43165398    1.63949096   -0.47364500
 H         -0.99845898   -0.70391798   -1.91330004
 H         -1.52687395    2.37139702   -1.18022096
 C         -5.84244204    1.50052500   -0.65318900
 C         -2.52186394    1.53564298    0.91735297
 H         -4.58931780    1.33442605    1.55156803
 H         -2.23955798    1.27219296    1.93996894
 O         -2.43952489    2.94270110    0.77693599
 H         -3.16628003    3.21548009    0.19764900
 C          2.18568993    0.54994702    0.70504397
 C          2.02196288   -0.95131099    0.97013700
 C          3.17445707   -1.72497106    0.31411701
 H          2.01465011   -1.12986696    2.05015802
 H          1.06417000   -1.29061103    0.56764197
 C          3.16487098   -1.46758997   -1.19744897
 C          3.34067702    0.03214200   -1.46141505
 H          3.97462392   -2.02863693   -1.67719603
 H          2.22126198   -1.81623006   -1.63126695
 C          2.18823600    0.80559498   -0.80663598
 H          2.29760098    1.87851405   -0.99453503
 H          1.23380899    0.48702401   -1.23327100
 C          3.52235889    1.02298796    1.29702306
 S          0.86929703    1.51093900    1.53013301
 C          4.50624323   -1.24957204    0.90685701
 H          3.04406190   -2.79450703    0.50864202
 C          4.67741823    0.25078201    0.64345300
 H          4.52751207   -1.44629204    1.98471701
 H          5.33673000   -1.80371499    0.45548701
 H          5.62253523    0.59660000    1.07439804
 C          4.67228079    0.50608099   -0.86780202
 H          3.64248109    2.09715009    1.12220597
 H          3.52589607    0.85848600    2.37989593
 H          4.81195879    1.57428503   -1.06824303
 H          3.32927990    0.22116600   -2.53983402
 H          5.50440121   -0.02888900   -1.33883405
 H         -0.33987299    1.06355095    0.63690603
 H         -6.11185217    0.45198900   -0.80340499
 H         -6.10477591    2.07639599   -1.53957200
 H         -6.37724495    1.89614105    0.21656100
