53
wb97x-d4 ma-def2-tzvp(-f) cpcm(dmso) E: -1515.6873236645, G: -1515.2770466900001
 C         -3.40999198   -0.03352500    2.41712594
 C         -3.23007607   -0.10148000    0.91386801
 H         -3.33109188   -1.03559899    2.83852696
 O         -4.69608784    0.46640500    2.76864696
 H         -2.61844707    0.59315503    2.84675694
 O         -3.30151892    1.25014901    0.44400001
 C         -1.87542403   -0.71635002    0.51674002
 H         -4.03952789   -0.69234502    0.47102800
 C         -1.71575499   -0.56953400   -0.97852898
 O         -1.76342297   -2.06121802    0.93972200
 H         -1.08091903   -0.15487100    1.01542699
 C         -3.27391005    1.38801098   -0.96425700
 H         -4.78692389    1.33715200    2.36197495
 O         -2.39285493   -1.54419005   -1.66530001
 O         -4.32155800    0.71945000   -1.59405696
 H         -2.35039592   -2.59838104    0.39126700
 H         -2.55737710   -1.21588695   -2.56357002
 C         -5.59818077    1.29733205   -1.32196605
 C         -1.93806696    0.84232497   -1.48279703
 H         -3.33848000    2.46651411   -1.14653695
 H         -1.15656698    1.48373604   -1.06572902
 O         -1.92970395    0.87470698   -2.89948702
 H         -1.00672996    0.82087302   -3.18535900
 C          2.16436100   -0.53429002   -0.80043602
 C          3.55915594   -0.64289498   -1.43666804
 C          4.63242292   -0.34159401   -0.38238299
 H          3.70064092   -1.65121603   -1.83956206
 H          3.64067197    0.06388400   -2.26914597
 C          4.42673779    1.07576799    0.16395999
 C          3.03863096    1.17832804    0.80632502
 H          5.20043516    1.30594504    0.90459102
 H          4.51907682    1.80667102   -0.64716899
 C          1.96587598    0.88158202   -0.25134999
 H          0.96940702    0.96857399    0.19285500
 H          2.02939606    1.60473001   -1.07049596
 C          2.05990100   -1.54850495    0.34544599
 S          0.96662700   -0.92369902   -2.12299895
 C          4.52269983   -1.35373998    0.76283300
 H          5.61898279   -0.41816300   -0.85071403
 C          3.13329697   -1.25166905    1.40162694
 H          4.68792295   -2.36849093    0.38363400
 H          5.29506922   -1.15241206    1.51332295
 H          3.04529309   -1.97991300    2.21434093
 C          2.92627001    0.16560800    1.95146596
 H          1.06418395   -1.49329102    0.79574001
 H          2.18826890   -2.56011105   -0.05212100
 H          1.94115496    0.24321400    2.42532897
 H          2.88588691    2.19107294    1.19334304
 H          3.67844009    0.38364801    2.71758795
 H         -0.36143601   -0.77515298   -1.31445801
 H         -5.60258293    2.35889101   -1.59250200
 H         -5.86142206    1.18982399   -0.26600701
 H         -6.32235909    0.76097298   -1.93388605
