53
wb97x-d4 ma-def2-tzvp(-f) cpcm(dmso) E: -1515.687667387907, G: -1515.2770307600001
 C         -3.15609193   -0.27053601   -2.49188995
 C         -3.00352812    0.42293000   -1.15115595
 H         -4.20405483   -0.56513101   -2.61587906
 O         -2.29691911   -1.39781702   -2.62844896
 H         -2.89365506    0.42745700   -3.28720999
 O         -3.36609197   -0.53943801   -0.15294100
 C         -1.56696701    0.90166801   -0.88552898
 H         -3.68832397    1.27804995   -1.11917806
 C         -1.48607898    1.45475495    0.51851600
 O         -1.13985801    1.84029305   -1.85311306
 H         -0.90850002    0.03509300   -0.96594697
 C         -3.40690303   -0.04164600    1.16153395
 H         -2.54711294   -2.03941011   -1.95266700
 O         -1.94112396    2.74786592    0.57402301
 O         -4.34207296    0.98581398    1.32837605
 H         -1.59576797    2.67530894   -1.68385994
 H         -2.07498598    2.98751712    1.50338399
 C         -5.69639587    0.54327601    1.22028005
 C         -2.03840208    0.51896602    1.58201301
 H         -3.67105103   -0.90143198    1.78720403
 H         -1.35762596   -0.32912800    1.67991698
 O         -2.12146902    1.17481899    2.83473992
 H         -3.03623605    1.47412598    2.94237900
 C          2.23741198    0.47781301    0.58113998
 C          3.66266489    0.51399702    1.15592802
 C          4.50140285   -0.60897899    0.52893698
 H          4.12028313    1.48648906    0.94568300
 H          3.62358809    0.39155501    2.24323106
 C          3.86166811   -1.96500003    0.84930903
 C          2.44039798   -2.00635791    0.27652699
 H          4.46335506   -2.77261305    0.41814601
 H          3.83295608   -2.11915708    1.93383706
 C          1.60660994   -0.88136703    0.90395498
 H          0.58671999   -0.92231202    0.51168197
 H          1.54969203   -1.00846195    1.98956203
 C          2.30802393    0.66912198   -0.93838298
 S          1.31912100    1.84301805    1.37703705
 C          4.56073093   -0.41749901   -0.99054903
 H          5.51242924   -0.56918597    0.94692898
 C          3.14035296   -0.45770201   -1.56452596
 H          5.03383398    0.54152501   -1.22954905
 H          5.17096996   -1.20728099   -1.44240105
 H          3.17629290   -0.31395301   -2.64935088
 C          2.49328995   -1.80932498   -1.24407697
 H          1.29906905    0.67126101   -1.35969603
 H          2.75896406    1.64149201   -1.16012394
 H          1.48041499   -1.84749401   -1.66133404
 H          1.97320700   -2.96863008    0.50950003
 H          3.06987405   -2.61871791   -1.70526099
 H         -0.11611300    1.54342699    0.83496499
 H         -6.32647800    1.39560199    1.47056901
 H         -5.88665485   -0.27581301    1.92165899
 H         -5.91487312    0.21114500    0.20210600
