53
wb97x-d4 ma-def2-tzvp(-f) cpcm(dmso) E: -1515.687094207617, G: -1515.27702154
 C         -4.50426197   -2.30968595    0.17426200
 C         -3.66240907   -1.10108101   -0.18576600
 H         -4.07092619   -3.20257902   -0.27581301
 O         -5.83030081   -2.18808603   -0.32984301
 H         -4.51270103   -2.43243504    1.26444197
 O         -4.29295301    0.02167000    0.44124800
 C         -2.22687411   -1.21513796    0.33311900
 H         -3.65291095   -0.96576601   -1.27198398
 C         -1.51287901    0.09514900    0.07697100
 O         -1.60208201   -2.31499004   -0.30115801
 H         -2.27202511   -1.36074102    1.41993904
 C         -3.71633101    1.27455902    0.12483400
 H         -6.20054007   -1.37423801    0.03382300
 O         -1.06071699    0.24069899   -1.20448899
 O         -3.73467588    1.54764903   -1.24104297
 H         -0.74871999   -2.46476793    0.12529400
 H         -0.94459200    1.19209194   -1.36085296
 C         -5.05496407    1.71248102   -1.75868499
 C         -2.26606393    1.29286695    0.62566298
 H         -4.31579924    2.00927305    0.67377698
 H         -2.31108999    1.20954001    1.71556997
 O         -1.64788699    2.50385594    0.22486401
 H         -0.88749802    2.65634298    0.80124599
 C          2.11071301   -0.06353400    1.00910699
 C          2.07312393   -1.15844798   -0.06405800
 C          3.34898806   -1.09872901   -0.91380399
 H          1.98529196   -2.13687992    0.41958499
 H          1.19484305   -1.01920497   -0.70028800
 C          3.44229198    0.27502200   -1.58940995
 C          3.49071503    1.36946797   -0.51729798
 H          4.34046888    0.32501999   -2.21473408
 H          2.57654190    0.43023500   -2.24303293
 C          2.21650410    1.31039798    0.33662000
 H          2.23681307    2.09061408    1.10398400
 H          1.33531594    1.48334503   -0.28836101
 C          3.33859897   -0.28453901    1.90621197
 S          0.64100599   -0.15749800    2.08834410
 C          4.57262611   -1.31212604   -0.01563200
 H          3.30762196   -1.88388705   -1.67554998
 C          4.61611891   -0.21787000    1.05744696
 H          4.52208281   -2.29919505    0.45752299
 H          5.48823404   -1.28136599   -0.61645401
 H          5.48242521   -0.37231201    1.70857894
 C          4.71279001    1.15517104    0.38257301
 H          3.36642790    0.48145801    2.68835711
 H          3.26335502   -1.26034296    2.39727902
 H          4.76085997    1.94402301    1.14161301
 H          3.55342889    2.35231090   -0.99577302
 H          5.63113308    1.21409798   -0.21185200
 H         -0.42329401    0.00616600    0.95033097
 H         -5.59998989    2.46878791   -1.18324006
 H         -5.60727978    0.76914299   -1.73265195
 H         -4.94854593    2.04400396   -2.79083109
