53
wb97x-d4 ma-def2-tzvp(-f) cpcm(dmso) E: -1515.686777193945, G: -1515.27696218
 C         -3.63461304   -1.63849998    1.78641105
 C         -3.28220296   -0.75931102    0.60081100
 H         -4.70983505   -1.84749699    1.75871503
 O         -3.26740789   -1.05882597    3.03423405
 H         -3.09369612   -2.58148003    1.70377696
 O         -4.03498220    0.44995999    0.74461198
 C         -1.78285801   -0.42706400    0.52948099
 H         -3.57844305   -1.28064406   -0.31677601
 C         -1.55527902    0.57530701   -0.58025098
 O         -1.00632203   -1.59749198    0.36622399
 H         -1.48613799    0.02712700    1.47714102
 C         -3.93857098    1.32845294   -0.35863400
 H         -3.76534891   -0.23825601    3.13364005
 O         -1.46629703   -0.02148600   -1.81021905
 O         -4.36818504    0.74367398   -1.54857600
 H         -1.12307000   -1.91219997   -0.53977799
 H         -1.65606904    0.65631002   -2.47907996
 C         -5.76962614    0.47404200   -1.56522202
 C         -2.48144388    1.77744198   -0.52268898
 H         -4.57018614    2.18538189   -0.09954300
 H         -2.23262310    2.36643004    0.36499801
 O         -2.36418390    2.55212307   -1.70510101
 H         -1.61962700    3.15796494   -1.60189605
 C          2.18692994    0.82262099    0.02409100
 C          2.06822300   -0.15031300   -1.15477598
 C          3.18219304   -1.20192099   -1.07313299
 H          1.09123504   -0.63813299   -1.13229001
 H          2.14164400    0.40605801   -2.09472895
 C          4.54612303   -0.50488901   -1.12928402
 C          4.67080116    0.46802300    0.04909800
 H          5.34968615   -1.24838102   -1.08563101
 H          4.65072918    0.03772800   -2.07547498
 C          3.55505991    1.51927102   -0.03732000
 H          3.64460492    2.23202491    0.78957301
 H          3.64030695    2.08065605   -0.97336400
 C          2.07209396    0.04921400    1.34289896
 S          0.91392201    2.12841702   -0.07538500
 C          3.05506206   -1.97588003    0.24462500
 H          3.08420396   -1.89169002   -1.91775703
 C          3.18510389   -1.00471199    1.42319906
 H          2.08720803   -2.48747993    0.28664199
 H          3.83554006   -2.74256396    0.30447599
 H          3.08984208   -1.55326998    2.36605692
 C          4.54826307   -0.30633500    1.36646497
 H          2.15106606    0.74827498    2.18155193
 H          1.09210896   -0.43199700    1.39791000
 H          4.65360689    0.37813199    2.21572089
 H          5.63938713    0.97669500    0.00769300
 H          5.35302019   -1.04630804    1.43871605
 H         -0.32365400    1.19446898   -0.30920199
 H         -6.03156996   -0.29168299   -0.82992703
 H         -6.00855303    0.11479700   -2.56552100
 H         -6.33720016    1.38771701   -1.35719705
