53
wb97x-d4 ma-def2-tzvp(-f) cpcm(dmso) E: -1515.686778122928, G: -1515.27693014
 C         -3.50116611   -0.14094600    2.12301207
 C         -3.25642395   -0.00418300    0.63587499
 H         -4.38760710    0.44774500    2.38327599
 O         -2.35892701    0.31976801    2.84278893
 H         -3.70097303   -1.19355702    2.34449601
 O         -3.15964603    1.38829994    0.32940099
 C         -1.97560704   -0.71222901    0.17799400
 H         -4.11275005   -0.44434601    0.11323000
 C         -1.73678195   -0.42495799   -1.29415095
 O         -2.15549588   -2.10862398    0.37300301
 H         -1.13773501   -0.33214900    0.76587600
 C         -3.07482195    1.67869103   -1.04992604
 H         -2.53180909    0.19571200    3.78233099
 O         -2.45879412   -1.22307801   -2.14293289
 O         -4.18121195    1.22346401   -1.77055597
 H         -1.28858805   -2.52510095    0.45450300
 H         -2.60108709   -2.06853795   -1.68511999
 C         -5.36593819    1.97840798   -1.51706600
 C         -1.81248903    1.04325604   -1.65551805
 H         -3.00442004    2.77027607   -1.10789800
 H         -0.96027100    1.54877400   -1.19762695
 O         -1.73497903    1.27250302   -3.04511905
 H         -2.54331803    0.91942602   -3.44017100
 C          2.09877491   -0.75821900   -0.70144999
 C          3.53047109   -0.84555298   -1.25589204
 C          4.53572416   -0.44115400   -0.16898300
 H          3.73255801   -1.86792397   -1.59322202
 H          3.62766790   -0.18361799   -2.12227702
 C          4.25181007    0.99890298    0.27311701
 C          2.82789207    1.08876204    0.83316499
 H          4.97491693    1.30463302    1.03725100
 H          4.36342621    1.68041503   -0.57754600
 C          1.82350397    0.68184501   -0.25425500
 H          0.80724198    0.75900900    0.14262199
 H          1.89858699    1.35442698   -1.11444795
 C          1.97493005   -1.70109701    0.50243998
 S          0.99042100   -1.26810396   -2.06400204
 C          4.40056705   -1.38142097    1.03339696
 H          5.54776287   -0.50966400   -0.58078301
 C          2.97633410   -1.29155898    1.59142494
 H          4.61984921   -2.41171789    0.73161799
 H          5.12447596   -1.10361099    1.80738699
 H          2.87032390   -1.96902597    2.44505811
 C          2.68666697    0.14701600    2.03515291
 H          0.95738697   -1.65896904    0.90251201
 H          2.16353798   -2.72995996    0.18087301
 H          1.67329001    0.21488599    2.44695807
 H          2.61783099    2.11749697    1.14311194
 H          3.38461208    0.44310200    2.82592702
 H         -0.40077901   -0.76981002   -1.52718198
 H         -5.19852400    3.03681302   -1.74387503
 H         -5.68055201    1.87428701   -0.47507399
 H         -6.13986301    1.58120000   -2.17272592
