53
wb97x-d4 ma-def2-tzvp(-f) cpcm(dmso) E: -1515.686681334387, G: -1515.2769295
 C         -5.08976078   -1.64221501    0.76849800
 C         -3.98337603   -0.83862102    0.11497500
 H         -5.07839203   -2.65905905    0.37662801
 O         -6.37358904   -1.09821796    0.47992101
 H         -4.91758919   -1.67982101    1.85130799
 O         -4.03356791    0.46597099    0.70613402
 C         -2.59484005   -1.44014001    0.36895701
 H         -4.16641617   -0.76636398   -0.96264797
 C         -1.54916406   -0.50570202   -0.20305800
 O         -2.47651601   -2.74904108   -0.15349101
 H         -2.44621301   -1.51179302    1.45052898
 C         -3.16678905    1.40713894    0.12279000
 H         -6.37934685   -0.18744500    0.79918200
 O         -1.38637495   -0.70351499   -1.54920006
 O         -3.43550897    1.63221300   -1.23190796
 H         -2.41931796   -2.68473911   -1.11599100
 H         -0.91370600    0.06211100   -1.91070199
 C         -4.67405319    2.30873108   -1.45663595
 C         -1.70251703    0.94520199    0.22671901
 H         -3.31271696    2.32852006    0.69693601
 H         -1.41057706    1.02244198    1.27686000
 O         -0.85672098    1.78174305   -0.54329997
 H         -1.40541899    2.18646407   -1.23138797
 C          2.16527700   -0.72799599    0.72473902
 C          2.19263506   -0.81010997   -0.80653697
 C          3.47142005   -0.15340699   -1.34346604
 H          2.14159012   -1.85818195   -1.11752295
 H          1.31834602   -0.29791200   -1.21590197
 C          3.50269198    1.31822801   -0.91212702
 C          3.48464108    1.40380502    0.61846101
 H          4.40418911    1.80332303   -1.30251205
 H          2.63793206    1.84848106   -1.32693100
 C          2.20743895    0.74228102    1.15604699
 H          2.18302011    0.80125803    2.24888110
 H          1.32389796    1.26099801    0.77392298
 C          3.39647007   -1.45658195    1.28563905
 S          0.69549102   -1.57963800    1.39589703
 C          4.69640303   -0.87892997   -0.77376801
 H          3.47526407   -0.21957400   -2.43618608
 C          4.67571020   -0.79305100    0.75683802
 H          4.69139099   -1.92818999   -1.08952200
 H          5.61474323   -0.42407700   -1.16113496
 H          5.54319096   -1.31907797    1.16823399
 C          4.70864677    0.67743599    1.18824601
 H          3.37939191   -1.42219996    2.38030410
 H          3.36769700   -2.50877309    0.98429501
 H          4.71057081    0.74762499    2.28176594
 H          3.50059390    2.45347404    0.92973101
 H          5.62788916    1.15124798    0.82638800
 H         -0.39579201   -0.94860202    0.46366000
 H         -4.70118093    3.24825311   -0.89491397
 H         -5.51726294    1.68000305   -1.15936506
 H         -4.72980881    2.51602888   -2.52427411
