53
wb97x-d4 ma-def2-tzvp(-f) cpcm(dmso) E: -1515.686596386473, G: -1515.27691237
 C         -4.50091410   -2.31551409    0.52356201
 C         -3.66949892   -1.14986098    0.02077800
 H         -5.51279783   -2.22702909    0.11282100
 O         -4.53988123   -2.38965392    1.94507897
 H         -4.06119299   -3.24792910    0.16856501
 O         -4.29948997    0.03910500    0.51081097
 C         -2.21329308   -1.20246804    0.51007402
 H         -3.68127489   -1.15943205   -1.07536900
 C         -1.51029205    0.07889600    0.12370700
 O         -1.54239905   -2.34535193    0.01565900
 H         -2.21952891   -1.27986801    1.59940100
 C         -3.72225690    1.24266601    0.04773500
 H         -4.95519590   -1.58130503    2.26896906
 O         -1.07090104    0.05689500   -1.17421806
 O         -3.75118709    1.35851705   -1.34027398
 H         -1.36008704   -2.20450592   -0.92283201
 H         -0.95710802    0.97337502   -1.46983302
 C         -5.07356024    1.48441899   -1.86337602
 C         -2.26337910    1.32272398    0.53255898
 H         -4.31865597    2.03780198    0.51188898
 H         -2.30072808    1.35591495    1.62738299
 O         -1.55934799    2.43125796    0.00562700
 H         -2.08630109    3.23038006    0.12581100
 C          2.14379501    0.05413600    0.95722198
 C          2.08240294   -1.14877200    0.00893600
 C          3.33017111   -1.17111397   -0.88378602
 H          2.02100992   -2.07069707    0.59585601
 H          1.18183398   -1.08646595   -0.60683602
 C          3.39116406    0.12346500   -1.70318699
 C          3.46460795    1.32567799   -0.75543702
 H          4.26845980    0.11083300   -2.35943508
 H          2.50409508    0.20422401   -2.34153891
 C          2.21919107    1.34926903    0.14025600
 H          2.25760388    2.20627689    0.82002997
 H          1.31831706    1.45263505   -0.47118700
 C          3.40077806   -0.06313300    1.83307004
 S          0.70808798    0.07314000    2.08650994
 C          4.58282423   -1.28302395   -0.00765300
 H          3.27196789   -2.03228092   -1.55733395
 C          4.65079784   -0.08124000    0.94166100
 H          4.55479908   -2.21475291    0.56831098
 H          5.47947121   -1.31173897   -0.63666803
 H          5.53812122   -0.16123800    1.57778502
 C          4.71573496    1.21335900    0.12256600
 H          3.44629908    0.78270203    2.52731705
 H          3.34936905   -0.98101503    2.42779994
 H          4.78145790    2.07855392    0.79181600
 H          3.50370407    2.25271606   -1.33677995
 H          5.61487818    1.21289098   -0.50345498
 H         -0.39814100    0.09229800    0.98628098
 H         -5.60340023    2.30684996   -1.37023103
 H         -5.63808918    0.55754101   -1.73008597
 H         -4.97204208    1.69986999   -2.92633390
