53
wb97x-d4 ma-def2-tzvp(-f) cpcm(dmso) E: -1515.687164902041, G: -1515.27690699
 C         -4.15691805   -1.30643106    1.77382696
 C         -3.55071712   -0.66146398    0.54386997
 H         -4.34969807   -2.35976696    1.57145202
 O         -5.40550709   -0.71381098    2.11736012
 H         -3.44797301   -1.23203099    2.60757589
 O         -3.25008988    0.69218302    0.90587199
 C         -2.25652289   -1.35679197    0.09466600
 H         -4.27868509   -0.67442000   -0.27471101
 C         -1.65942800   -0.56682497   -1.04889596
 O         -2.47606301   -2.71034694   -0.25197101
 H         -1.55383396   -1.34895802    0.93240100
 C         -2.79307890    1.49795496   -0.15264100
 H         -5.24640083    0.22376600    2.28152990
 O         -2.27036595   -0.87875098   -2.23745489
 O         -3.72315407    1.62708497   -1.18944597
 H         -2.93301296   -2.73257589   -1.10303998
 H         -1.99950004   -0.22470900   -2.89930296
 C         -4.86785984    2.40354991   -0.83029503
 C         -1.50549698    0.91693300   -0.76300502
 H         -2.58771110    2.47536898    0.29731601
 H         -0.71675301    1.04672503   -0.01917300
 O         -1.13865197    1.61774397   -1.93750894
 H         -1.94735205    2.00169611   -2.30691195
 C          2.16364598   -0.88845199   -0.59011197
 C          3.51203990   -1.61145103   -0.74412102
 C          4.58945513   -0.87426603    0.06441900
 H          3.41765094   -2.64328790   -0.39039999
 H          3.79330993   -1.64524496   -1.80197895
 C          4.72149086    0.56412297   -0.44718501
 C          3.37929606    1.28551197   -0.28793600
 H          5.49986315    1.09042799    0.11632000
 H          5.02257299    0.56194502   -1.50079501
 C          2.30765605    0.54975998   -1.10214806
 H          1.35068095    1.07154095   -1.01995099
 H          2.58252406    0.53102398   -2.16140604
 C          1.77517605   -0.87590700    0.89139003
 S          0.95494199   -1.82865202   -1.58618701
 C          4.19246578   -0.85622603    1.54478300
 H          5.54264212   -1.39917696   -0.05549100
 C          2.84794593   -0.13793300    1.70367396
 H          4.11791515   -1.88100505    1.92533898
 H          4.96228695   -0.34243199    2.13110399
 H          2.55380797   -0.13102899    2.75822091
 C          2.97427511    1.30218399    1.19101405
 H          0.80805898   -0.38085601    1.02107406
 H          1.66900003   -1.90507102    1.24829495
 H          2.01955390    1.82712305    1.31009901
 H          3.46628094    2.31245303   -0.65772903
 H          3.72373891    1.84400403    1.77837896
 H         -0.35238299   -1.07443798   -1.19098103
 H         -4.56017590    3.39137602   -0.47198099
 H         -5.45054817    1.89781201   -0.05605200
 H         -5.47038889    2.51001811   -1.73117197
