53
wb97x-d4 ma-def2-tzvp(-f) cpcm(dmso) E: -1515.686888892917, G: -1515.27689561
 C         -3.77172303   -0.88562101   -2.13241911
 C         -3.32065296   -0.07996200   -0.93104202
 H         -3.18067002   -0.60003698   -3.00241709
 O         -5.13547277   -0.62991601   -2.45294309
 H         -3.61287594   -1.95257497   -1.93276203
 O         -4.10105991   -0.54045600    0.17800400
 C         -1.82623398   -0.27727801   -0.62767297
 H         -3.51658297    0.98354000   -1.10723698
 C         -1.50478804    0.40725800    0.68374300
 O         -1.01694095    0.19262201   -1.68794703
 H         -1.63034701   -1.34792101   -0.52115601
 C         -3.91243792    0.20076101    1.36747706
 H         -5.66105080   -0.85178900   -1.67442799
 O         -1.27618802    1.74765301    0.52121502
 O         -4.21362209    1.55232406    1.21464097
 H         -1.03286302    1.15871406   -1.67162704
 H         -1.41152203    2.17728400    1.38127601
 C         -5.60267401    1.78929102    0.98583800
 C         -2.45298195    0.05480900    1.81607795
 H         -4.58004808   -0.26232401    2.10241294
 H         -2.31122708   -0.99979800    2.07107711
 O         -2.22296095    0.89171702    2.93759608
 H         -1.48126900    0.53127801    3.44018292
 C          2.18457699   -0.55839902    0.74953198
 C          3.50063396   -0.94588298    1.44149196
 C          4.67653799   -0.71518302    0.48153499
 H          3.63103294   -0.34352499    2.34644794
 H          3.46276903   -1.99809897    1.74324703
 C          4.48930120   -1.57537198   -0.77313399
 C          3.17811894   -1.18773699   -1.46569502
 H          5.33296013   -1.42793298   -1.45645201
 H          4.46887207   -2.63646793   -0.49998799
 C          2.00478101   -1.42110002   -0.50450301
 H          1.06019795   -1.16609800   -0.99212497
 H          1.95901704   -2.47572398   -0.21432100
 C          2.24245596    0.92062700    0.35279599
 S          0.84421003   -0.86711401    1.95230496
 C          4.72770786    0.76465899    0.08427800
 H          5.60605288   -0.99468398    0.98778600
 C          3.41652608    1.15301096   -0.60812801
 H          4.88013506    1.38617003    0.97383302
 H          5.57376003    0.94054699   -0.58915502
 H          3.44440699    2.21157503   -0.88626301
 C          3.22594190    0.29272699   -1.86322606
 H          1.30361795    1.21164405   -0.12577100
 H          2.36224508    1.53380001    1.25174201
 H          2.29731703    0.57396799   -2.37237692
 H          3.03559399   -1.80521500   -2.35864711
 H          4.05097294    0.46547899   -2.56315303
 H         -0.32083300   -0.18556599    1.15635800
 H         -5.74643517    2.86871791    1.01481402
 H         -6.20492077    1.31634605    1.76928496
 H         -5.91135693    1.40525401    0.00959200
