53
wb97x-d4 ma-def2-tzvp(-f) cpcm(dmso) E: -1515.685925603412, G: -1515.2768711
 C         -3.27246404   -0.24809100    2.32552600
 C         -3.14123392   -0.17159501    0.81766403
 H         -3.22242308   -1.29024696    2.64058900
 O         -4.52400398    0.26261500    2.77327108
 H         -2.44194698    0.29991800    2.78735089
 O         -3.16412091    1.22058403    0.48374501
 C         -1.82625794   -0.79725599    0.32120001
 H         -3.98845196   -0.68152499    0.34613499
 C         -1.67739201   -0.51139599   -1.15722895
 O         -1.76492405   -2.18164802    0.60152102
 H         -1.00018597   -0.32275099    0.85735798
 C         -3.16637492    1.48582006   -0.90521097
 H         -4.58340788    1.18001497    2.47936201
 O         -2.39775300   -1.39643300   -1.91966605
 O         -4.25550079    0.92300200   -1.56499505
 H         -2.37697005   -2.63524389    0.00674400
 H         -2.55761600   -0.99037302   -2.78552699
 C         -5.49818277    1.53199196   -1.21443796
 C         -1.86090398    0.94468302   -1.51805496
 H         -3.19264793    2.57973099   -0.98334903
 H         -1.04594302    1.51767302   -1.06395602
 O         -1.83054698    1.03195095   -2.93043089
 H         -2.06976295    1.92709899   -3.20027089
 C          2.16949201   -0.70341301   -0.75458503
 C          3.59590197   -0.85925102   -1.30830204
 C          4.61585617   -0.45425501   -0.23499100
 H          3.76141000   -1.89857495   -1.61171699
 H          3.71512198   -0.22972199   -2.19602394
 C          4.38301516    1.00812304    0.16100100
 C          2.96338010    1.16551697    0.71668798
 H          5.11668301    1.31208706    0.91571403
 H          4.51816607    1.65861702   -0.71034598
 C          1.94646096    0.75923997   -0.35806099
 H          0.93189102    0.88864100    0.02941800
 H          2.04991198    1.39730096   -1.24126399
 C          2.01286602   -1.60415995    0.47565600
 S          1.03746903   -1.21436095   -2.09491897
 C          4.44846392   -1.34961700    0.99761701
 H          5.62459898   -0.57120597   -0.64392602
 C          3.02796102   -1.19390500    1.55107200
 H          4.63289785   -2.39598298    0.72969103
 H          5.18149424   -1.07134199    1.76281703
 H          2.90024996   -1.83901596    2.42654800
 C          2.78871703    0.26828700    1.94837201
 H          0.99548501   -1.52199101    0.86822802
 H          2.17079902   -2.64721608    0.18437400
 H          1.77821898    0.38482901    2.35575008
 H          2.78998089    2.21050310    0.99354100
 H          3.49625707    0.56483197    2.73036194
 H         -0.33204499   -0.78419501   -1.47836494
 H         -5.74366808    1.34865105   -0.16470000
 H         -6.25917578    1.08144295   -1.85040295
 H         -5.45884180    2.61161089   -1.39657700
