53
wb97x-d4 ma-def2-tzvp(-f) cpcm(dmso) E: -1515.687633874092, G: -1515.27682959
 C         -4.83756304   -1.84141004   -0.35601401
 C         -3.84171700   -0.69465601   -0.34494799
 H         -5.82747698   -1.43028903   -0.56553900
 O         -4.92962790   -2.52727294    0.88930798
 H         -4.57110023   -2.53006506   -1.16195703
 O         -4.31601620    0.29240400    0.57441199
 C         -2.43364501   -1.11532295    0.08102400
 H         -3.80159712   -0.27645200   -1.35743201
 C         -1.54318404    0.11111200    0.12053700
 O         -1.93319404   -2.05267406   -0.86184603
 H         -2.48190498   -1.54774404    1.08563495
 C         -3.57261801    1.49307799    0.58486903
 H         -4.23138809   -3.19010711    0.92690498
 O         -1.09526503    0.53139502   -1.10234404
 O         -3.57402802    2.14401793   -0.65128797
 H         -1.16542304   -2.48930192   -0.46733499
 H         -1.04402804   -0.25015399   -1.67689300
 C         -4.84808111    2.68265796   -1.00278401
 C         -2.10800600    1.22303402    0.97610801
 H         -4.05239677    2.11786103    1.34631205
 H         -2.11927795    0.87367803    2.01122403
 O         -1.33755696    2.40336394    0.94134903
 H         -1.41439605    2.77203298    0.05129600
 C          2.07862210   -0.63020802    0.77796799
 C          2.10093307    0.89961803    0.68365097
 C          3.38736796    1.35711205   -0.01651800
 H          1.22704101    1.24614894    0.12594301
 H          2.04349899    1.32706499    1.68979895
 C          4.60397196    0.88081300    0.78533101
 C          4.58736420   -0.64947897    0.87777799
 H          5.52740002    1.21434999    0.29928300
 H          4.58512402    1.31763804    1.79016805
 C          3.30030799   -1.10323906    1.58066595
 H          3.28394008   -2.19489789    1.66862297
 H          3.25773191   -0.68672001    2.59234190
 C          2.14007807   -1.23201203   -0.63089001
 S          0.59647399   -1.20283401    1.67962897
 C          3.43684411    0.75848699   -1.42752600
 H          3.39007306    2.45018697   -0.07892200
 C          3.42460799   -0.77189201   -1.33469296
 H          2.57663012    1.10491800   -2.01145101
 H          4.34266376    1.09355199   -1.94482803
 H          3.45453906   -1.20365906   -2.34043193
 C          4.64141703   -1.24675095   -0.53279102
 H          2.11648989   -2.32417297   -0.56136602
 H          1.26389503   -0.91693401   -1.20457602
 H          4.64960909   -2.34113789   -0.47743899
 H          5.44855595   -0.99413002    1.45925295
 H          5.56478500   -0.93568200   -1.03367496
 H         -0.45323601   -0.39675999    0.85086399
 H         -4.71003294    3.24052691   -1.92815995
 H         -5.20807314    3.35561395   -0.21691599
 H         -5.57913589    1.88529503   -1.16171300
