53
wb97x-d4 ma-def2-tzvp(-f) cpcm(dmso) E: -1515.687494031264, G: -1515.2768265900002
 C         -3.28558898   -2.17534304    1.27302098
 C         -3.14924788   -1.00520897    0.31726199
 H         -4.28087807   -2.13945508    1.72966099
 O         -2.27232099   -2.18752003    2.27321005
 H         -3.19201303   -3.10658908    0.71397799
 O         -3.29729390    0.18295600    1.10509396
 C         -1.78510296   -0.96404499   -0.39052600
 H         -3.94925690   -1.06678796   -0.42936301
 C         -1.71382797    0.29123801   -1.22670996
 O         -1.55305803   -2.13054705   -1.15519297
 H         -1.01009202   -0.92151499    0.37710801
 C         -3.31998205    1.38446295    0.37426901
 H         -2.36295199   -1.37795901    2.79048395
 O         -2.37869811    0.14000399   -2.41759396
 O         -4.39699411    1.46427798   -0.51589799
 H         -2.10741806   -2.08845305   -1.94532895
 H         -2.48689294    1.01381600   -2.82260799
 C         -5.66108084    1.61376202    0.13342400
 C         -2.03443408    1.55859005   -0.45297399
 H         -3.39202905    2.17683411    1.12722099
 H         -1.22048604    1.74705005    0.25026801
 O         -2.14172912    2.66960096   -1.32423103
 H         -3.08440590    2.80466795   -1.50094795
 C          2.15034604    0.22251700   -0.96409100
 C          2.09069109   -1.27981400   -0.66781098
 C          3.11648989   -1.63816202    0.41593400
 H          1.08489203   -1.55180800   -0.33689201
 H          2.29783607   -1.83970499   -1.58525801
 C          4.52288103   -1.28061104   -0.07760400
 C          4.59288216    0.22176300   -0.37567201
 H          5.26589918   -1.54414594    0.68317401
 H          4.75978899   -1.85347199   -0.98117101
 C          3.56237507    0.58066601   -1.45515704
 H          3.61217499    1.65104795   -1.68048298
 H          3.78028607    0.03527200   -2.37949800
 C          1.85003400    1.00934196    0.31513700
 S          1.00529599    0.68055397   -2.31292892
 C          2.80599093   -0.84756100    1.69415796
 H          3.05825496   -2.71170092    0.62247300
 C          2.87992597    0.65506399    1.39609396
 H          1.80649996   -1.10761702    2.06095505
 H          3.52376604   -1.10897899    2.47941303
 H          2.65266299    1.22375906    2.30374002
 C          4.28589821    1.01199400    0.90085500
 H          1.87493205    2.08233500    0.10093600
 H          0.84570301    0.76328200    0.67305601
 H          4.35091496    2.08741689    0.70049298
 H          5.59193993    0.48076099   -0.74078399
 H          5.02542686    0.77547997    1.67381406
 H         -0.36076000    0.43379599   -1.60227799
 H         -5.63953590    2.47080493    0.81450701
 H         -5.91898680    0.70953000    0.69068903
 H         -6.39872313    1.78435802   -0.64942503
