53
wb97x-d4 ma-def2-tzvp(-f) cpcm(dmso) E: -1515.689136270621, G: -1515.27879759
 C         -4.66665983   -1.50462103   -1.29506099
 C         -3.76054001   -0.47792399   -0.64162099
 H         -5.67753506   -1.08650506   -1.35671604
 O         -4.67724800   -2.75199389   -0.60917997
 H         -4.30952692   -1.70232403   -2.30604196
 O         -4.29547977   -0.21991000    0.65963000
 C         -2.31275010   -0.95879000   -0.49986601
 H         -3.78025699    0.43515700   -1.24720895
 C         -1.51904702    0.07604200    0.27613500
 O         -1.76915300   -1.10909200   -1.80421901
 H         -2.30649400   -1.90557301    0.04657600
 C         -3.64658093    0.81563598    1.36944401
 H         -5.04032803   -2.60055208    0.27172399
 O         -1.10715497    1.14532006   -0.47246099
 O         -3.71091890    2.04551291    0.71217197
 H         -1.02888298   -1.72704399   -1.75679100
 H         -0.99562198    0.82887900   -1.38438499
 C         -5.02691793    2.59647107    0.66983902
 C         -2.16425109    0.46942100    1.58682501
 H         -4.16481113    0.86807698    2.33316207
 H         -2.13895607   -0.40274099    2.24466896
 O         -1.47992396    1.51061499    2.24835205
 H         -1.58514702    2.30913806    1.71405602
 C          2.14420295   -0.77592802    0.50177598
 C          3.40602398   -1.49112594    1.00783801
 C          4.64915085   -0.86264300    0.36212000
 H          3.46501088   -1.40592599    2.09796691
 H          3.35100603   -2.55613995    0.75836301
 C          4.56321192   -1.00802195   -1.16153705
 C          3.30675411   -0.29334199   -1.67314398
 H          5.45600414   -0.57770097   -1.62845504
 H          4.52852297   -2.06852007   -1.43535697
 C          2.06650710   -0.92047399   -1.02215600
 H          1.16390598   -0.42597201   -1.39257598
 H          1.99469197   -1.98094201   -1.28373301
 C          2.22481298    0.70980901    0.87120301
 S          0.71417397   -1.57940197    1.30539203
 C          4.72131586    0.62313402    0.73205698
 H          5.53983593   -1.37995899    0.73308200
 C          3.46521807    1.33835697    0.22062400
 H          4.79858494    0.73493600    1.81938303
 H          5.61669016    1.07463503    0.29060301
 H          3.50929189    2.39899898    0.48873401
 C          3.37528396    1.19313097   -1.30310404
 H          1.32090795    1.22187603    0.53041202
 H          2.27594805    0.81130499    1.95992804
 H          2.48572803    1.71306705   -1.67654300
 H          3.23451996   -0.40206999   -2.76007700
 H          4.24911690    1.65600204   -1.77481997
 H         -0.39460999   -0.64788800    0.70660597
 H         -5.45050478    2.65232491    1.67845905
 H         -5.68172121    1.99570405    0.03282300
 H         -4.93541002    3.59957790    0.25510401
