53
wb97x-d4 ma-def2-tzvp(-f) cpcm(dmso) E: -1515.688002795276, G: -1515.27681837
 C         -3.17706609   -1.92990196    1.51504600
 C         -3.09982896   -0.81252801    0.48111200
 H         -2.35481095   -1.82644296    2.22681594
 O         -3.03350902   -3.21511102    0.90230101
 H         -4.12305784   -1.85993397    2.05813503
 O         -3.26250100    0.40131500    1.21089995
 C         -1.74640298   -0.78730297   -0.24826600
 H         -3.90410805   -0.93054497   -0.25401601
 C         -1.69964194    0.43088400   -1.14345896
 O         -1.56634998   -1.92613900   -1.07384706
 H         -0.95402497   -0.70991600    0.50642902
 C         -3.31767702    1.56277502    0.40597799
 H         -3.88454294   -3.46973896    0.52504802
 O         -2.38715005    0.29112801   -2.32145691
 O         -4.39351511    1.55460894   -0.48235801
 H         -1.93082094   -2.68694305   -0.59078300
 H         -2.34391093   -0.64784497   -2.56640911
 C         -5.65951777    1.69781196    0.16183700
 C         -2.02284694    1.71719301   -0.41184101
 H         -3.41171503    2.39316797    1.11408401
 H         -1.22067106    1.90665400    0.30420801
 O         -2.09075809    2.83480000   -1.26923895
 H         -2.87409091    2.72342396   -1.82435703
 C          2.15694499    0.31726900   -0.97393501
 C          2.03237295   -1.18510103   -0.69705701
 C          3.06515503   -1.60939097    0.35523599
 H          1.02329397   -1.41565800   -0.34691200
 H          2.19116306   -1.73887098   -1.62787795
 C          4.47459698   -1.31335795   -0.16913500
 C          4.61054420    0.18809199   -0.44941199
 H          5.22240591   -1.62305999    0.56922799
 H          4.66092777   -1.88457298   -1.08550096
 C          3.57199311    0.61280000   -1.49729300
 H          3.66911888    1.68265104   -1.70948398
 H          3.73932195    0.07064300   -2.43394804
 C          1.93116605    1.10232198    0.32240701
 S          0.99583501    0.84735298   -2.28000808
 C          2.82328105   -0.82315600    1.65032995
 H          2.95947599   -2.68180609    0.54855901
 C          2.96638203    0.67792898    1.37231195
 H          1.81991303   -1.03801799    2.03536606
 H          3.54328895   -1.13220000    2.41605592
 H          2.79124594    1.24270797    2.29383707
 C          4.37582493    0.97257400    0.84609199
 H          2.01205206    2.17473793    0.11932300
 H          0.92216301    0.91107303    0.70016801
 H          4.48831081    2.04656696    0.65963697
 H          5.61167622    0.40285099   -0.83680898
 H          5.12255383    0.68857998    1.59572995
 H         -0.36156601    0.58472502   -1.54080296
 H         -5.66944599    2.59585309    0.78877097
 H         -5.88623905    0.82188100    0.77567703
 H         -6.40523577    1.79317403   -0.62641698
