53
wb97x-d4 ma-def2-tzvp(-f) cpcm(dmso) E: -1515.687921457634, G: -1515.2768139700001
 C         -4.98987579   -1.79382205    0.41187900
 C         -3.91759300   -0.86976999   -0.12982599
 H         -4.80902910   -2.80762911    0.05468300
 O         -6.28423214   -1.41544294   -0.04417700
 H         -4.94679403   -1.79267097    1.50804996
 O         -4.17564917    0.42013901    0.43281201
 C         -2.50930500   -1.30827796    0.27151999
 H         -3.98899698   -0.82344103   -1.22157097
 C         -1.51303196   -0.24907200   -0.17300200
 O         -2.21742105   -2.54006290   -0.37301299
 H         -2.46682596   -1.40985799    1.36173403
 C         -3.34865093    1.45311904   -0.06155200
 H         -6.43669415   -0.50608200    0.24107300
 O         -1.16092205   -0.33532500   -1.49189901
 O         -3.46434689    1.62550795   -1.44177306
 H         -1.47926402   -2.95668292    0.09147500
 H         -1.23328304   -1.27077401   -1.74616098
 C         -4.73750114    2.13293791   -1.84130001
 C         -1.87287104    1.15579903    0.26007199
 H         -3.67388105    2.35602808    0.46665001
 H         -1.77241302    1.20709705    1.34674597
 O         -1.02113497    2.13809204   -0.28634501
 H         -1.19427001    2.17229390   -1.23667598
 C          2.12255812   -0.58751202    0.88448399
 C          2.22043800   -0.88424599   -0.61648500
 C          3.53070307   -0.31219000   -1.17576098
 H          2.18089604   -1.96662295   -0.77644902
 H          1.36671996   -0.44079801   -1.13504303
 C          3.56155801    1.20413899   -0.95186502
 C          3.47411895    1.50187397    0.54895198
 H          4.48634911    1.62370801   -1.36312401
 H          2.72381997    1.67686296   -1.47709596
 C          2.16438198    0.92969000    1.10844302
 H          2.08847189    1.14005101    2.18016911
 H          1.30557203    1.39503002    0.61651498
 C          3.31251907   -1.23572004    1.60660303
 S          0.60061502   -1.30440605    1.59628999
 C          4.71601295   -0.96264899   -0.45241299
 H          3.58632803   -0.53007299   -2.24726295
 C          4.62463617   -0.66534698    1.04872704
 H          4.70900393   -2.04533911   -0.62116700
 H          5.65897799   -0.57359999   -0.85236299
 H          5.46459579   -1.13490105    1.57070005
 C          4.66036081    0.85120702    1.27029705
 H          3.24418712   -1.03737199    2.68158698
 H          3.28357911   -2.32106400    1.46453702
 H          4.61541319    1.07543802    2.34197402
 H          3.49005103    2.58435702    0.71254200
 H          5.60187006    1.26113796    0.88814598
 H         -0.41342700   -0.61764300    0.61632597
 H         -5.52818203    1.40420401   -1.64290202
 H         -4.67836285    2.32401705   -2.91207290
 H         -4.95976782    3.06566095   -1.31168306
