53
wb97x-d4 ma-def2-tzvp(-f) cpcm(dmso) E: -1515.687153136936, G: -1515.2767848400001
 C         -3.21835208   -2.22134590    1.27772903
 C         -3.10444593   -1.03346503    0.34359100
 H         -3.08389997   -3.14170408    0.70993799
 O         -4.50365782   -2.29088306    1.88631701
 H         -2.43055010   -2.15877295    2.03864002
 O         -3.24074793    0.13537900    1.16173697
 C         -1.74443603   -0.98163199   -0.36993799
 H         -3.91099310   -1.06599104   -0.39676800
 C         -1.68214297    0.29377699   -1.17875004
 O         -1.51384699   -2.12979388   -1.16219103
 H         -0.96245700   -0.95259303    0.39377600
 C         -3.28335905    1.35085797    0.45447001
 H         -4.63398886   -1.47267795    2.38127089
 O         -2.35180497    0.16253801   -2.36891508
 O         -4.36970615    1.44045496   -0.42251399
 H         -2.06793904   -2.06733990   -1.95130205
 H         -2.46656990    1.04401505   -2.75519395
 C         -5.62826204    1.55898595    0.24403800
 C         -2.00540209    1.54595304   -0.37997800
 H         -3.35228610    2.12807298    1.22332704
 H         -1.18728495    1.72719705    0.32039401
 O         -2.12504792    2.67030311   -1.23227596
 H         -3.06970596    2.80405498   -1.39927697
 C          2.19217205    0.23906700   -0.97941399
 C          2.14601493   -1.26163304   -0.67209601
 C          3.19732189   -1.60850596    0.39107099
 H          1.14917898   -1.53486300   -0.31584901
 H          2.33465409   -1.82728505   -1.58996105
 C          4.59084511   -1.24792600   -0.13587999
 C          4.64725113    0.25286499   -0.44449401
 H          5.35163021   -1.50350201    0.60987300
 H          4.81029892   -1.82527602   -1.04100096
 C          3.59171391    0.60010397   -1.50335395
 H          3.63177609    1.66911900   -1.73690498
 H          3.79174304    0.04945500   -2.42866898
 C          1.91537702    1.03098905    0.30254999
 S          1.01664495    0.68444800   -2.30510592
 C          2.91217494   -0.81163800    1.67075503
 H          3.14853907   -2.68101597    0.60526299
 C          2.97135592    0.68924999    1.36190701
 H          1.92283404   -1.07415605    2.06217909
 H          3.64915395   -1.06437194    2.44093108
 H          2.76186895    1.26262403    2.27084303
 C          4.36438084    1.04992998    0.83320498
 H          1.92828798    2.10294294    0.08211500
 H          0.92017400    0.77991903    0.68236601
 H          4.41945601    2.12426996    0.62421399
 H          5.63684416    0.51400101   -0.83306497
 H          5.12191916    0.82229799    1.59120905
 H         -0.33227101    0.44606799   -1.56182694
 H         -5.60859919    2.39879704    0.94635803
 H         -5.86956215    0.63792902    0.78096098
 H         -6.37628889    1.74070501   -0.52630401
