53
wb97x-d4 ma-def2-tzvp(-f) cpcm(dmso) E: -1515.686921726656, G: -1515.2767627300002
 C         -4.19765377   -0.95510399    1.58851099
 C         -3.56614995   -0.47232899    0.29584101
 H         -5.15818596   -0.44417700    1.71874595
 O         -3.36081600   -0.75051600    2.72189307
 H         -4.38061523   -2.02747107    1.51781404
 O         -3.37420011    0.94095898    0.43940800
 C         -2.20476007   -1.11126995    0.01158100
 H         -4.25439787   -0.68138599   -0.52996099
 C         -1.64399803   -0.49838701   -1.25114202
 O         -2.36376405   -2.51353192   -0.08629100
 H         -1.53867304   -0.84962499    0.83976102
 C         -2.89573789    1.60535800   -0.70494199
 H         -3.21548700    0.19919400    2.81112003
 O         -2.21396494   -1.00317502   -2.38948703
 O         -3.77927399    1.53517997   -1.78776002
 H         -1.48851597   -2.89772105   -0.23385800
 H         -1.96213698   -0.42883301   -3.12851596
 C         -4.96999502    2.30264997   -1.60085499
 C         -1.55333602    1.01404595   -1.17471004
 H         -2.75963211    2.64697695   -0.39412799
 H         -0.80492097    1.27833796   -0.42417401
 O         -1.16104400    1.56519902   -2.41876197
 H         -1.96596801    1.85619605   -2.87184906
 C          2.09596992   -0.96319503   -0.36630201
 C          2.40872192    0.41827601   -0.95387900
 C          3.43356705    1.13875198   -0.06695400
 H          2.80201507    0.30059901   -1.96848202
 H          1.48957896    1.00787199   -1.02203596
 C          2.86500192    1.29818797    1.34807396
 C          2.56750989   -0.08603000    1.93747997
 H          3.58374691    1.82870996    1.98218501
 H          1.94735205    1.89638996    1.31734896
 C          1.54009402   -0.80398500    1.05230296
 H          1.30321801   -1.78973401    1.46469998
 H          0.61375201   -0.22308500    1.02381396
 C          3.39264202   -1.78727806   -0.30794799
 S          0.93995798   -1.89027905   -1.43481302
 C          4.72512102    0.31449699   -0.01292400
 H          3.64313602    2.12484789   -0.49391001
 C          4.42305803   -1.06916201    0.57476300
 H          5.14548683    0.21111500   -1.01947403
 H          5.47120094    0.82661200    0.60456902
 H          5.33969498   -1.66667604    0.60618699
 C          3.85838389   -0.91091597    1.99152505
 H          3.17791605   -2.78121400    0.09797800
 H          3.79054093   -1.91836596   -1.31977296
 H          3.65521002   -1.89594495    2.42618394
 H          2.15407109    0.02180300    2.94547606
 H          4.59410095   -0.41333801    2.63291907
 H         -0.32735500   -0.98317897   -1.28568804
 H         -5.52515888    2.25384498   -2.53647590
 H         -4.71958303    3.34401894   -1.37302101
 H         -5.57571888    1.88628495   -0.79206300
