53
wb97x-d4 ma-def2-tzvp(-f) cpcm(dmso) E: -1515.687340538039, G: -1515.2767450600002
 C         -3.20234799   -2.37267590   -0.54413402
 C         -3.07591009   -0.86349303   -0.49394000
 H         -3.00734305   -2.71697688   -1.55948901
 O         -4.51560783   -2.80343699   -0.20304200
 H         -2.45895195   -2.81909490    0.12800901
 O         -3.28569198   -0.48846099    0.87332898
 C         -1.68420005   -0.38534099   -0.93659103
 H         -3.84355998   -0.40577999   -1.12730801
 C         -1.59770405    1.10853696   -0.72006202
 O         -1.40042198   -0.74825102   -2.27329707
 H         -0.94138598   -0.87902498   -0.30433300
 C         -3.32206702    0.89920503    1.10509002
 H         -4.70077181   -2.48815989    0.69006503
 O         -2.18513489    1.79372299   -1.75387394
 O         -4.35307312    1.54675698    0.41622001
 H         -1.91816103   -0.17780200   -2.85665202
 H         -2.29129004    2.71935892   -1.48704696
 C         -5.65335083    1.24395502    0.92600900
 C         -1.99995804    1.55666399    0.67483902
 H         -3.46140003    1.00713897    2.18626094
 H         -1.23101699    1.22392905    1.37553596
 O         -2.08858705    2.96842694    0.74206501
 H         -3.02305698    3.20304203    0.64371902
 C          2.23984909    0.79008001   -0.37461701
 C          1.86349297    0.32706499    1.03632796
 C          2.84082389   -0.76062000    1.50292504
 H          1.88841295    1.18101895    1.72052503
 H          0.84366697   -0.06895800    1.03729796
 C          2.77589107   -1.95152199    0.53970098
 C          3.16551304   -1.49037194   -0.87047797
 H          3.45525408   -2.74222708    0.87663102
 H          1.76271999   -2.36950994    0.52956802
 C          2.18978190   -0.40216801   -1.33879006
 H          2.45375109   -0.06521300   -2.34615803
 H          1.17290604   -0.80122203   -1.38083303
 C          3.66888595    1.35584605   -0.35386401
 S          1.15801895    2.14678907   -0.94627702
 C          4.26407385   -0.19173700    1.52233005
 H          2.55894303   -1.08415794    2.51012802
 C          4.64806509    0.26965499    0.11168600
 H          4.32131720    0.65079302    2.22049308
 H          4.96826315   -0.95575202    1.86964202
 H          5.66010523    0.68702197    0.12097500
 C          4.58871794   -0.92196202   -0.85043299
 H          3.94128895    1.70305097   -1.35623097
 H          3.71419191    2.21690297    0.32103300
 H          4.87910986   -0.60533899   -1.85844302
 H          3.11426497   -2.33700609   -1.56278503
 H          5.29714489   -1.69438601   -0.53139400
 H         -0.23321900    1.45756602   -0.79107600
 H         -5.89621401    0.19024700    0.76623201
 H         -6.35844707    1.86864901    0.37952700
 H         -5.70558214    1.47523105    1.99498296
