53
wb97x-d4 ma-def2-tzvp(-f) cpcm(dmso) E: -1515.685674333443, G: -1515.2767232600002
 C         -4.95417786   -1.83431101    0.15358900
 C         -3.97711992   -0.68370599    0.04698600
 H         -5.82508993   -1.49660099    0.72595203
 O         -4.32275295   -2.93900704    0.79817897
 H         -5.27979517   -2.10695910   -0.85465598
 O         -3.68205690   -0.23343401    1.37110901
 C         -2.67327189   -1.07360804   -0.65799701
 H         -4.46195316    0.11756400   -0.52185100
 C         -1.69850695    0.09316400   -0.61250198
 O         -2.98096800   -1.38285005   -2.01213908
 H         -2.23413205   -1.93124402   -0.14423300
 C         -2.88722491    0.93124700    1.42684495
 H         -4.95431995   -3.66578388    0.82678598
 O         -1.91526198    1.04269898   -1.57584596
 O         -3.47909594    2.02447605    0.78969300
 H         -2.37119699   -2.06099606   -2.32574296
 H         -2.28469610    0.58210301   -2.34782910
 C         -4.64684105    2.50113010    1.45774198
 C         -1.51859105    0.67740798    0.77171499
 H         -2.75543690    1.13673496    2.49489594
 H         -1.01941705   -0.07155200    1.38984096
 O         -0.71660799    1.83710206    0.78520799
 H         -1.19939101    2.52737498    0.31142700
 C          2.09517503   -0.65178698   -0.81921399
 C          2.05018592   -0.73745400    0.71003097
 C          3.32282591   -0.12261800    1.30630195
 H          1.17306602   -0.20154899    1.08067596
 H          1.95465302   -1.78475201    1.01310897
 C          4.54746103   -0.88993102    0.79433501
 C          4.60009384   -0.80377197   -0.73521501
 H          5.46206713   -0.46718100    1.22448206
 H          4.49093723   -1.93821597    1.10846496
 C          3.32520890   -1.42190504   -1.32601595
 H          3.36033893   -1.38197196   -2.41976500
 H          3.24734712   -2.47396994   -1.03212702
 C          2.20536208    0.81541598   -1.24823499
 S          0.63421100   -1.45532000   -1.56394100
 C          3.42163491    1.34727895    0.87961501
 H          3.27356601   -0.18842700    2.39803791
 C          3.47807288    1.43265998   -0.65046197
 H          2.55628991    1.90501595    1.25463998
 H          4.31944323    1.80261302    1.31208599
 H          3.54460311    2.48101306   -0.95939201
 C          4.70255423    0.66488099   -1.16273403
 H          2.23446608    0.87374997   -2.34091592
 H          1.32249796    1.36275995   -0.90567100
 H          4.75773907    0.73430401   -2.25493097
 H          5.46718216   -1.35895896   -1.10735297
 H          5.61935902    1.10800302   -0.75834602
 H         -0.49819601   -0.54358900   -0.95411998
 H         -4.42030001    2.73644090    2.50333309
 H         -5.45008707    1.76032400    1.41799295
 H         -4.95985985    3.40599298    0.93816000
