53
wb97x-d4 ma-def2-tzvp(-f) cpcm(dmso) E: -1515.689152503996, G: -1515.27877241
 C         -4.67214584   -1.45109701   -1.31970894
 C         -3.76180410   -0.43345699   -0.65798002
 H         -5.67970085   -1.02553296   -1.38443005
 O         -4.69485283   -2.70116401   -0.63906598
 H         -4.31168413   -1.64724600   -2.32981610
 O         -4.30187321   -0.17542300    0.64117801
 C         -2.31851101   -0.92607999   -0.51007497
 H         -3.77128291    0.48171201   -1.26067698
 C         -1.52114797    0.09941100    0.27422699
 O         -1.76910603   -1.07555497   -1.81203902
 H         -2.32255101   -1.87504900    0.03253100
 C         -3.64866400    0.85217601    1.35837197
 H         -5.06443787   -2.55162692    0.23942401
 O         -1.09617603    1.16815197   -0.46780801
 O         -3.69856811    2.08490109    0.70506901
 H         -1.03724098   -1.70342004   -1.76422000
 H         -0.98427701    0.85469902   -1.38074601
 C         -5.01019907    2.64536190    0.65328997
 C         -2.17059302    0.49286300    1.58283699
 H         -4.17219210    0.90551400    2.31917810
 H         -2.15618205   -0.38197699    2.23744392
 O         -1.48104000    1.52577901    2.25185108
 H         -1.57663298    2.32693911    1.71968496
 C          2.13279700   -0.80172002    0.50335801
 C          3.38117599   -1.54478300    1.00290406
 C          4.63642597   -0.92938203    0.36838001
 H          3.43890095   -1.47459400    2.09417295
 H          3.30867195   -2.60541105    0.73962200
 C          4.55193806   -1.05393600   -1.15713799
 C          3.30925107   -0.31124800   -1.66222596
 H          5.45311785   -0.63324302   -1.61664903
 H          4.49956083   -2.11015010   -1.44434798
 C          2.05665398   -0.92478299   -1.02248704
 H          1.16459203   -0.40850201   -1.38831997
 H          1.96614397   -1.98019898   -1.29822600
 C          2.23743391    0.67754602    0.89219701
 S          0.68825799   -1.59264302    1.29340398
 C          4.73262119    0.55022699    0.75772399
 H          5.51723480   -1.46636403    0.73495603
 C          3.48997903    1.29323900    0.25251001
 H          4.80879879    0.64665300    1.84659803
 H          5.63661718    0.99234098    0.32444701
 H          3.55140591    2.34943891    0.53438997
 C          3.40205908    1.16917503   -1.27320194
 H          1.34296501    1.20914602    0.55593300
 H          2.28759193    0.76437598    1.98222804
 H          2.52260804    1.70888996   -1.64248502
 H          3.23781991   -0.40474600   -2.75063992
 H          4.28511715    1.62297106   -1.73645902
 H         -0.40506399   -0.63364100    0.71112400
 H         -5.44192696    2.70138192    1.65843701
 H         -5.66386414    2.05111694    0.00902200
 H         -4.90801716    3.64896607    0.24225301
