53
wb97x-d4 ma-def2-tzvp(-f) cpcm(dmso) E: -1515.686481288466, G: -1515.27670067
 C         -4.96282387   -1.91000199   -0.22035600
 C         -3.96153498   -0.77771002   -0.07891600
 H         -5.02087307   -2.20165896   -1.27255404
 O         -6.25093603   -1.57230103    0.28575599
 H         -4.61448193   -2.76744008    0.36078101
 O         -3.73578906   -0.57994801    1.31668305
 C         -2.63370800   -1.12061000   -0.76451701
 H         -4.36916113    0.13565400   -0.52789301
 C         -1.59120095   -0.06013500   -0.43903500
 O         -2.85012507   -1.14572203   -2.17087007
 H         -2.28555799   -2.09230995   -0.39875701
 C         -2.88931203    0.50544399    1.62586403
 H         -6.64492083   -0.92142498   -0.30690101
 O         -1.64775002    1.04190695   -1.24686599
 O         -3.36852288    1.72573197    1.14338803
 H         -2.24663496   -1.78425503   -2.56949496
 H         -1.99697602    0.74338800   -2.10398412
 C         -4.55560017    2.16522694    1.80271399
 C         -1.48913801    0.27644601    1.03324294
 H         -2.83244109    0.52262199    2.71980810
 H         -1.07065904   -0.59117502    1.54847801
 O         -0.64123702    1.37183797    1.29688001
 H         -1.06643999    2.15860510    0.93043202
 C          2.14677501   -0.72527200   -0.72931898
 C          2.27077794   -0.81375003    0.79783601
 C          3.51147008   -0.04119200    1.26733005
 H          1.37252903   -0.39945701    1.26334298
 H          2.34515905   -1.86486197    1.09425497
 C          4.76137114   -0.65113902    0.62235200
 C          4.64481401   -0.56284899   -0.90360099
 H          5.65621090   -0.11555400    0.95841300
 H          4.86927605   -1.69728398    0.93027103
 C          3.40199208   -1.33472598   -1.36956704
 H          3.31760907   -1.28829598   -2.46025109
 H          3.48639607   -2.38927507   -1.08562696
 C          2.03125691    0.74466503   -1.14953101
 S          0.71567500   -1.69241405   -1.32281005
 C          3.38389993    1.42814100    0.84870899
 H          3.58535004   -0.11056200    2.35746789
 C          3.27166510    1.51769698   -0.67758203
 H          2.50088906    1.87628305    1.31723702
 H          4.25895786    1.99181604    1.19116998
 H          3.17421889    2.56537890   -0.98044300
 C          4.52231312    0.90735000   -1.32070398
 H          1.94101000    0.80527300   -2.23891902
 H          1.12959504    1.18124795   -0.71349400
 H          4.45791388    0.98370498   -2.41192889
 H          5.53131723   -1.00634897   -1.36823797
 H          5.41447401    1.45901406   -1.00412798
 H         -0.41102600   -0.75945997   -0.77115601
 H         -5.39611101    1.50336802    1.57669902
 H         -4.77048016    3.16676593    1.43192196
 H         -4.39947510    2.19956899    2.88641095
