53
wb97x-d4 ma-def2-tzvp(-f) cpcm(dmso) E: -1515.687032839035, G: -1515.2766532300002
 C         -3.69593596   -2.47122693    0.75047302
 C         -3.34983110   -1.11894906    0.15955301
 H         -3.88657498   -3.18046999   -0.05456400
 O         -4.87661219   -2.41429090    1.54439402
 H         -2.84633589   -2.83148909    1.34358394
 O         -3.06504107   -0.26248100    1.27259803
 C         -2.11487198   -1.18636096   -0.75180000
 H         -4.20516586   -0.72768199   -0.40197599
 C         -1.72558498    0.21862900   -1.15852904
 O         -2.33362293   -2.01943994   -1.87378800
 H         -1.29481804   -1.62867796   -0.18064100
 C         -2.83125997    1.08300197    0.93651003
 H         -4.71815586   -1.77777100    2.25238991
 O         -2.47218990    0.64899302   -2.22629094
 O         -3.91792703    1.69231105    0.30200899
 H         -2.91496205   -1.55034006   -2.48678899
 H         -2.33797598    1.60432005   -2.32282996
 C         -5.03407907    1.89996600    1.17032897
 C         -1.62179601    1.20289600   -0.00446900
 H         -2.61769605    1.58401000    1.88709903
 H         -0.73939800    0.95427197    0.58815098
 O         -1.48025596    2.52531290   -0.49018100
 H         -2.35598612    2.93810391   -0.46145099
 C          2.11509299   -0.04204900   -1.15356696
 C          1.72004104   -1.00509596   -0.02948400
 C          2.80013609   -1.00621498    1.06032598
 H          0.76595402   -0.69876802    0.40718499
 H          1.58844697   -2.01149511   -0.43902099
 C          4.13320684   -1.46050406    0.45403600
 C          4.53779221   -0.49611399   -0.66677201
 H          4.90878582   -1.48041999    1.22751701
 H          4.03672981   -2.47737908    0.05734100
 C          3.45431209   -0.49789000   -1.75498998
 H          3.73974490    0.17457999   -2.57094193
 H          3.34548593   -1.50355303   -2.17363405
 C          2.28258109    1.37397897   -0.58666199
 S          0.88977700   -0.06824200   -2.50859308
 C          2.94529605    0.41049901    1.62864304
 H          2.50159693   -1.69582796    1.85641801
 C          3.35743093    1.37211204    0.50849003
 H          1.99592197    0.73490900    2.06981993
 H          3.69806910    0.41912299    2.42460394
 H          3.45965290    2.38546610    0.91026199
 C          4.69141722    0.91716099   -0.09363200
 H          2.56596494    2.05616903   -1.39419901
 H          1.33064997    1.72536600   -0.17829999
 H          5.00212717    1.61130500   -0.88243097
 H          5.48434591   -0.82037801   -1.11088598
 H          5.47135687    0.92331803    0.67578202
 H         -0.42289200    0.09568900   -1.67168498
 H         -5.77085400    2.46928501    0.60553902
 H         -4.72637081    2.46751189    2.05476403
 H         -5.46573400    0.94482702    1.48029399
