53
wb97x-d4 ma-def2-tzvp(-f) cpcm(dmso) E: -1515.687098593921, G: -1515.2766424600002
 C         -4.22245598   -1.27590501    1.48067605
 C         -3.55922103   -0.62391198    0.28374201
 H         -4.43545818   -2.31999493    1.25214100
 O         -5.46540308   -0.65678102    1.79569995
 H         -3.53922510   -1.23551202    2.33798790
 O         -3.24506593    0.71654499    0.68056297
 C         -2.26480889   -1.34067595   -0.12727700
 H         -4.25687218   -0.60815901   -0.56079900
 C         -1.58778000   -0.54192501   -1.22066104
 O         -2.50435209   -2.67819905   -0.52017498
 H         -1.60247803   -1.37602496    0.74206299
 C         -2.73188901    1.52879095   -0.34647000
 H         -5.28686094    0.27300900    1.98273206
 O         -2.12586188   -0.82784402   -2.44984102
 O         -3.61475706    1.68519998   -1.42013705
 H         -2.92217398   -2.66532898   -1.39132905
 H         -1.80973494   -0.16333900   -3.08079004
 C         -4.76502705    2.46862411   -1.09459102
 C         -1.42807102    0.93698901   -0.90844399
 H         -2.53213596    2.49720693    0.12503700
 H         -0.67158800    1.04808998   -0.12934101
 O         -1.00021398    1.64678001   -2.05655694
 H         -1.78551197    2.05130601   -2.45356989
 C          2.17581892   -0.92660397   -0.42630601
 C          2.42345500    0.48090401   -0.98272198
 C          3.43824506    1.21744895   -0.09831100
 H          2.79967594    0.40311700   -2.00761509
 H          1.48317897    1.03788602   -1.01873398
 C          2.89163899    1.31624496    1.33100498
 C          2.66192293   -0.09368600    1.89009702
 H          3.60024595    1.85934103    1.96593904
 H          1.94993401    1.87679601    1.33299303
 C          1.64722002   -0.83298200    1.00888395
 H          1.46945298   -1.84093297    1.39670205
 H          0.69123298   -0.30217299    1.02263403
 C          3.50481701   -1.70036995   -0.41618401
 S          1.03775895   -1.87324905   -1.49708104
 C          4.76157713    0.44356099   -0.09233000
 H          3.60033894    2.22226095   -0.50174701
 C          4.52552605   -0.96532899    0.46431100
 H          5.16353178    0.38278300   -1.10986900
 H          5.50063610    0.96843600    0.52295101
 H          5.46506786   -1.52707005    0.46048400
 C          3.98668098   -0.86509001    1.89619601
 H          3.33665991   -2.71193409   -0.03257000
 H          3.88641310   -1.78989303   -1.43883097
 H          3.83438993   -1.86787498    2.31057692
 H          2.26700711   -0.02800700    2.90906596
 H          4.71548510   -0.35233501    2.53357697
 H         -0.28616199   -1.07056499   -1.26662397
 H         -5.38276291    1.95776105   -0.35148701
 H         -5.33055115    2.59512496   -2.01655698
 H         -4.46148920    3.44749093   -0.70910400
