53
wb97x-d4 ma-def2-tzvp(-f) cpcm(dmso) E: -1515.686111255297, G: -1515.2766215200002
 C         -3.54859400   -0.81182301    1.92091203
 C         -3.26097107   -0.18498001    0.56973201
 H         -3.47028804   -1.89869106    1.83127105
 O         -4.82049179   -0.43312299    2.44096804
 H         -2.80261397   -0.46601200    2.64052510
 O         -3.11261106    1.22262204    0.77788699
 C         -1.96882403   -0.75331402   -0.04813500
 H         -4.09686279   -0.37650099   -0.11394500
 C         -1.63855898    0.03982200   -1.29123795
 O         -2.07216191   -2.13812590   -0.31692800
 H         -1.15991294   -0.62664300    0.67655700
 C         -2.93831396    1.97921205   -0.40322700
 H         -5.50121307   -0.84629899    1.89687598
 O         -2.35155106   -0.38963699   -2.38148594
 O         -3.99821997    1.83918798   -1.29787600
 H         -2.65401006   -2.25262809   -1.07991099
 H         -2.38433695    0.33952400   -3.02130795
 C         -5.21880913    2.38857102   -0.80211002
 C         -1.63493896    1.54002905   -1.08288598
 H         -2.85527897    3.01858997   -0.06580600
 H         -0.82737702    1.79602206   -0.39267099
 O         -1.48896801    2.21914005   -2.31782889
 H         -0.56077701    2.15269709   -2.58155489
 C          2.16313505   -0.49420699   -0.84811598
 C          1.94214904    0.70587701    0.07935600
 C          2.91775894    0.63685602    1.26203001
 H          2.08464503    1.63487005   -0.48149800
 H          0.91577798    0.69638801    0.45632100
 C          2.67139697   -0.66038698    2.04252195
 C          2.89987206   -1.86254799    1.11986601
 H          3.34791398   -0.71463799    2.90253091
 H          1.64564300   -0.67403603    2.42853808
 C          1.92910898   -1.79215801   -0.06723300
 H          2.07993793   -2.64952207   -0.73053998
 H          0.89505601   -1.82624400    0.28896400
 C          3.61006188   -0.47028399   -1.36542499
 S          1.08531404   -0.40298501   -2.32128406
 C          4.35846615    0.65821397    0.73957902
 H          2.74638200    1.49948394    1.91397595
 C          4.58399820   -0.54622102   -0.18187200
 H          4.54535389    1.58877897    0.19203199
 H          5.06185102    0.62334102    1.57878196
 H          5.60895300   -0.53127801   -0.56607401
 C          4.34162807   -1.84231806    0.59927797
 H          3.77344394   -1.31634295   -2.04132295
 H          3.78147888    0.44943199   -1.93419194
 H          4.51811409   -2.70862103   -0.04797000
 H          2.72029305   -2.79066205    1.67223203
 H          5.04314804   -1.90917301    1.43808901
 H         -0.30094501   -0.24475300   -1.61826801
 H         -5.93975496    2.33944798   -1.61730695
 H         -5.07415819    3.43214703   -0.50141299
 H         -5.59033680    1.81389904    0.05060100
