53
wb97x-d4 ma-def2-tzvp(-f) cpcm(dmso) E: -1515.687607935329, G: -1515.27660055
 C         -4.98337412   -1.86685896    0.16400900
 C         -3.95723891   -0.74332601    0.07782700
 H         -4.55775309   -2.70911002    0.71434402
 O         -5.32802820   -2.35420609   -1.13675904
 H         -5.86997414   -1.51157999    0.69577199
 O         -3.70306492   -0.34204000    1.42235601
 C         -2.64117002   -1.20233905   -0.56552303
 H         -4.36986923    0.09142100   -0.50016803
 C         -1.62564898   -0.08213300   -0.48052999
 O         -2.79784107   -1.51832795   -1.94023204
 H         -2.26282406   -2.06408095   -0.00106400
 C         -2.84749103    0.77741599    1.53813505
 H         -5.97657490   -1.75408900   -1.52480996
 O         -1.77182102    0.88560200   -1.43962002
 O         -3.36109900    1.91449797    0.91280401
 H         -3.65482092   -1.96764803   -2.03162193
 H         -2.15070105    0.45260599   -2.22262907
 C         -4.51023388    2.44988489    1.56902301
 C         -1.47088099    0.47562400    0.91835302
 H         -2.74241805    0.94552201    2.61536288
 H         -1.01464796   -0.29963401    1.53780699
 O         -0.63163698    1.60662794    0.97310901
 H         -1.08845198    2.32578397    0.51662499
 C          2.14768100   -0.76573598   -0.66595298
 C          2.20072699   -0.68049097    0.86384100
 C          3.45822001    0.08192100    1.30229604
 H          1.30833304   -0.16920801    1.23262000
 H          2.20491004   -1.69114900    1.28427303
 C          4.70300579   -0.65515202    0.79534799
 C          4.65821218   -0.73870999   -0.73491001
 H          5.60820484   -0.12608600    1.11328101
 H          4.74313211   -1.66258502    1.22478998
 C          3.39922309   -1.50235903   -1.16944301
 H          3.36542511   -1.58127606   -2.26105690
 H          3.41751003   -2.51883411   -0.76195502
 C          2.12328410    0.64858902   -1.25674605
 S          0.70807099   -1.74168396   -1.22115505
 C          3.42525792    1.49703300    0.71236402
 H          3.47992206    0.13731100    2.39558005
 C          3.38104296    1.41188896   -0.81795800
 H          2.54781389    2.03755999    1.08386004
 H          4.31379509    2.05483890    1.02848601
 H          3.35094595    2.42067695   -1.24276602
 C          4.62669516    0.67611498   -1.32402205
 H          2.08063793    0.58665001   -2.34887099
 H          1.22632599    1.17186701   -0.91459101
 H          4.61408377    0.62648499   -2.41864204
 H          5.54023409   -1.27338398   -1.10207200
 H          5.52990389    1.22227097   -1.02997005
 H         -0.44320899   -0.76975399   -0.76320702
 H         -5.35245609    1.75510895    1.51115203
 H         -4.76477098    3.37507391    1.05343497
 H         -4.28459787    2.66340590    2.61941910
