53
wb97x-d4 ma-def2-tzvp(-f) cpcm(dmso) E: -1515.687192868709, G: -1515.27657937
 C         -5.16738796   -1.62770998    0.39624500
 C         -4.00776100   -0.84141302   -0.18642500
 H         -6.10261297   -1.13316095    0.11122000
 O         -5.08143902   -1.76566303    1.81040096
 H         -5.16415405   -2.63426709   -0.02260100
 O         -4.07251883    0.46644500    0.39630800
 C         -2.63930297   -1.45816696    0.13664800
 H         -4.13651514   -0.77885699   -1.27311206
 C         -1.54984999   -0.54323500   -0.37931201
 O         -2.51719499   -2.76939011   -0.37978101
 H         -2.54805207   -1.53175902    1.22261298
 C         -3.15262508    1.39095104   -0.12679701
 H         -5.11638212   -0.88080800    2.19351292
 O         -1.32260895   -0.73240298   -1.71789396
 O         -3.33762407    1.62792003   -1.49391401
 H         -2.42691398   -2.70781493   -1.33988297
 H         -0.81833100    0.02732900   -2.04754710
 C         -4.53857899    2.34474611   -1.78627098
 C         -1.70339203    0.90578198    0.05539400
 H         -3.31387091    2.31268406    0.44272599
 H         -1.46844494    0.97044098    1.12056398
 O         -0.80833101    1.73933101   -0.66039199
 H         -1.31454003    2.15199900   -1.37581897
 C          2.09042692   -0.77653098    0.76853102
 C          2.28204989   -0.81971902   -0.75327599
 C          3.56193209   -0.06751700   -1.14237297
 H          2.33857989   -1.86184299   -1.08284402
 H          1.42000103   -0.36266401   -1.24629498
 C          3.45322895    1.39083505   -0.68032002
 C          3.27474189    1.43482900    0.84137899
 H          4.35599279    1.94212198   -0.96598399
 H          2.60220098    1.87623203   -1.17132604
 C          1.99627101    0.68102002    1.23340499
 H          1.86243296    0.70613199    2.31963396
 H          1.12496495    1.15736306    0.77825999
 C          3.30026793   -1.44151902    1.44175303
 S          0.61213201   -1.72773504    1.26194406
 C          4.76534081   -0.73103303   -0.46286899
 H          3.68232107   -0.10459000   -2.22985697
 C          4.58194304   -0.68736303    1.05891395
 H          4.86012888   -1.76972198   -0.79891300
 H          5.68783712   -0.20988201   -0.74205101
 H          5.43472719   -1.16966105    1.54740906
 C          4.47813416    0.77106702    1.51955497
 H          3.16923308   -1.43193102    2.52907109
 H          3.37063599   -2.48666310    1.12288201
 H          4.36417913    0.81351799    2.60855794
 H          3.19105697    2.47502208    1.17299199
 H          5.39805603    1.30865598    1.26389003
 H         -0.43913999   -1.02442396    0.33035100
 H         -4.56611204    3.28473210   -1.22535801
 H         -5.41740513    1.74436104   -1.53797305
 H         -4.52771282    2.55393004   -2.85497093
