53
wb97x-d4 ma-def2-tzvp(-f) cpcm(dmso) E: -1515.686284749164, G: -1515.2765704100002
 C         -4.20372391   -1.38935304    1.28412294
 C         -3.56655002   -0.59673101    0.15855899
 H         -5.15191603   -0.91136098    1.55436599
 O         -3.35733294   -1.50630605    2.42329311
 H         -4.41053677   -2.40165496    0.93599498
 O         -3.31202006    0.71401203    0.67756701
 C         -2.24849510   -1.21341205   -0.34054801
 H         -4.27657986   -0.54250801   -0.67488098
 C         -1.62047195   -0.27311501   -1.34386599
 O         -2.45090294   -2.50541592   -0.87965798
 H         -1.57728302   -1.32334995    0.51266497
 C         -2.83537197    1.64097095   -0.27620000
 H         -3.19234800   -0.61595500    2.75663209
 O         -2.18661809   -0.40588000   -2.58735609
 O         -3.72882009    1.84523201   -1.32498503
 H         -2.90096211   -2.40901804   -1.72928905
 H         -2.01381302    0.40819100   -3.08509398
 C         -4.92905378    2.50016904   -0.91372800
 C         -1.49098504    1.14553905   -0.84274799
 H         -2.68543506    2.57078290    0.28621900
 H         -0.78551298    1.15339100   -0.00476200
 O         -1.01943099    1.92751205   -1.92352498
 H         -1.07889497    2.86262798   -1.69340301
 C          2.14410901   -0.76168102   -0.63916898
 C          2.38700795    0.74605501   -0.77654999
 C          3.36663294    1.21593499    0.30663401
 H          2.79186606    0.95856303   -1.77106798
 H          1.43905199    1.28353703   -0.68523198
 C          2.77916694    0.91416001    1.69013000
 C          2.55007601   -0.59552401    1.83352494
 H          3.46363091    1.26356602    2.47107005
 H          1.83190405    1.44994700    1.81946599
 C          1.57059097   -1.06633604    0.74967402
 H          1.38788402   -2.14151001    0.84146202
 H          0.61232901   -0.55488199    0.87769300
 C          3.48239207   -1.50155795   -0.79832202
 S          1.04662597   -1.38100696   -1.96220803
 C          4.69896317    0.47670099    0.14223699
 H          3.52659988    2.29384995    0.20032801
 C          4.46557283   -1.03149402    0.28268501
 H          5.13228512    0.69963598   -0.83923799
 H          5.41211224    0.81607902    0.90155399
 H          5.41241789   -1.56598103    0.15502000
 C          3.88300800   -1.33467603    1.66836905
 H          3.31777811   -2.58052897   -0.71279299
 H          3.89602995   -1.30472195   -1.79314303
 H          3.72992802   -2.41378999    1.78162205
 H          2.12325096   -0.81333703    2.81783295
 H          4.58667183   -1.01909900    2.44647503
 H         -0.30335599   -0.73658401   -1.50918400
 H         -4.69483089    3.44006610   -0.40185601
 H         -5.51688290    1.86185503   -0.24852000
 H         -5.49975014    2.70838809   -1.81787395
