53
wb97x-d4 ma-def2-tzvp(-f) cpcm(dmso) E: -1515.688814792042, G: -1515.2787522
 C         -4.83673000   -1.88829195   -0.47520801
 C         -3.83073092   -0.75390798   -0.54410702
 H         -5.80175018   -1.52119994   -0.84179997
 O         -4.96751118   -2.42566395    0.83656102
 H         -4.50416088   -2.70144701   -1.12095702
 O         -4.31772995    0.27348500    0.32427999
 C         -2.43067408   -1.16523397   -0.08414700
 H         -3.78243589   -0.38962799   -1.57640398
 C         -1.53442097    0.05766200   -0.04286800
 O         -1.91092598   -2.11182904   -1.00712001
 H         -2.50252390   -1.58934700    0.92180902
 C         -3.56284404    1.46764398    0.32244000
 H         -5.28726006   -1.71897495    1.41066897
 O         -1.04483497    0.44834700   -1.25953901
 O         -3.52057600    2.07817888   -0.93222302
 H         -1.16534698   -2.55913997   -0.58306402
 H         -0.98568702   -0.34642199   -1.81531799
 C         -4.77358198    2.63158703   -1.33374298
 C         -2.11431789    1.19545496    0.76698601
 H         -4.06005001    2.11889601    1.04957402
 H         -2.16016006    0.87513399    1.81041598
 O         -1.33382201    2.36884594    0.72281301
 H         -1.38039899    2.71205306   -0.17949501
 C          2.05493808   -0.67833000    0.84184998
 C          2.19780588   -1.15006602   -0.61007798
 C          3.52714705   -0.64639801   -1.19108295
 H          2.15980411   -2.24356604   -0.64318502
 H          1.36168694   -0.76999098   -1.20320499
 C          3.56005311    0.88585502   -1.14128196
 C          3.42849302    1.35435998    0.31335101
 H          4.49968719    1.25253797   -1.56912804
 H          2.74173903    1.29793000   -1.74262094
 C          2.09713507    0.85344100    0.88825899
 H          1.97999406    1.18914700    1.92352998
 H          1.26228797    1.26093602    0.31128001
 C          3.21954989   -1.23957205    1.67149997
 S          0.51196402   -1.30482495    1.59318399
 C          4.68678713   -1.21198404   -0.36244699
 H          3.61464095   -0.98485798   -2.22863793
 C          4.55159187   -0.74347800    1.09145105
 H          4.67886114   -2.30687809   -0.40599599
 H          5.64321709   -0.87322903   -0.77569097
 H          5.37221622   -1.15244699    1.68961799
 C          4.58814907    0.78830200    1.14106297
 H          3.11915493   -0.91405100    2.71212411
 H          3.18765903   -2.33427596    1.65936399
 H          4.50981092    1.13077199    2.17896605
 H          3.44504905    2.44837999    0.35202900
 H          5.54309988    1.15215504    0.74609900
 H         -0.47835401   -0.45425099    0.72866100
 H         -5.51790380    1.84502995   -1.48465395
 H         -4.60034704    3.15444899   -2.27351689
 H         -5.13744593    3.33870196   -0.58036202
