53
wb97x-d4 ma-def2-tzvp(-f) cpcm(dmso) E: -1515.686940923121, G: -1515.2765624800002
 C         -3.53836608   -2.40778208   -0.58066100
 C         -3.23973989   -0.92107701   -0.52809602
 H         -4.59816408   -2.54295993   -0.82389402
 O         -3.21144605   -3.07684493    0.63319898
 H         -2.93911099   -2.86595893   -1.36779594
 O         -4.04856586   -0.38066700    0.52221698
 C         -1.75898802   -0.61961299   -0.24294300
 H         -3.51971292   -0.47421601   -1.48885596
 C         -1.58554399    0.86756498   -0.02640400
 O         -0.93106699   -1.10904896   -1.28034794
 H         -1.47318304   -1.14180100    0.67253500
 C         -4.00650311    1.02850795    0.62020499
 H         -3.75790691   -2.69676805    1.33173394
 O         -1.46226001    1.55384302   -1.20606101
 O         -4.41576481    1.65814197   -0.55436599
 H         -1.02754402   -0.52412599   -2.04341793
 H         -1.68879199    2.48142099   -1.02970505
 C         -5.79936886    1.45456100   -0.83998501
 C         -2.57626796    1.46938896    0.95539600
 H         -4.68066406    1.27900696    1.44672000
 H         -2.35582995    1.08197296    1.95427501
 O         -2.50779295    2.88599706    0.92528999
 H         -1.81358600    3.17340112    1.53105795
 C          2.13726711    0.49173400    0.79355401
 C          1.94476795   -1.02599394    0.89143300
 C          3.11964011   -1.74470401    0.21347800
 H          1.88201904   -1.31542897    1.94525301
 H          1.00471401   -1.30639899    0.41007000
 C          3.18686008   -1.32834601   -1.26144898
 C          3.39195895    0.18833400   -1.35541606
 H          4.01257706   -1.84832799   -1.75970197
 H          2.26136804   -1.61330605   -1.77393496
 C          2.21600509    0.90709603   -0.67956501
 H          2.34704494    1.99189103   -0.74557698
 H          1.28010905    0.65287000   -1.18441296
 C          3.44767809    0.87861598    1.49684703
 S          0.79396898    1.37662697    1.66007996
 C          4.42528200   -1.35552895    0.91678101
 H          2.96779299   -2.82652593    0.28629899
 C          4.62528419    0.16134000    0.82187700
 H          4.39028788   -1.66371202    1.96780002
 H          5.27130795   -1.87298799    0.45106399
 H          5.55130816    0.44493699    1.33241701
 C          4.69747114    0.57666099   -0.65178400
 H          3.58824301    1.96313298    1.44292796
 H          3.39474201    0.60041499    2.55484796
 H          4.85671186    1.65806699   -0.72889400
 H          3.43605089    0.49025801   -2.40700412
 H          5.54654408    0.08350000   -1.13778698
 H         -0.38676599    1.02102101    0.68610603
 H         -6.04050016    2.08605194   -1.69421196
 H         -6.41393709    1.74674404    0.01856700
 H         -5.99964714    0.40902099   -1.08976102
