53
wb97x-d4 ma-def2-tzvp(-f) cpcm(dmso) E: -1515.68580293725, G: -1515.2765616000002
 C         -4.75764084   -1.42027998   -1.07624602
 C         -3.77305508   -0.45549601   -0.44583100
 H         -4.46987581   -1.60927200   -2.11029196
 O         -6.07522106   -0.88146901   -1.10177600
 H         -4.73607111   -2.36861396   -0.52513301
 O         -4.20164204   -0.28136301    0.91095698
 C         -2.34289789   -1.00097406   -0.44064301
 H         -3.80169797    0.50365800   -0.97265202
 C         -1.46295404   -0.04402900    0.33437401
 O         -1.91119099   -1.17235005   -1.77672100
 H         -2.34875488   -1.95775294    0.09709000
 C         -3.46397710    0.67377299    1.64777696
 H         -6.31841803   -0.67341697   -0.19118100
 O         -1.09510303    1.06412005   -0.37715301
 O         -3.52917695    1.95173001    1.09772205
 H         -1.04470301   -1.59975898   -1.75596702
 H         -0.85456699    1.75454104    0.26057401
 C         -4.83420420    2.52503896    1.17431295
 C         -1.99135900    0.22640400    1.72408402
 H         -3.91414690    0.66380399    2.64814591
 H         -1.97903204   -0.71405798    2.28613901
 O         -1.14413095    1.19307601    2.31558394
 H         -1.55189300    1.52257299    3.12532592
 C          2.16187501   -0.94955498    0.09643200
 C          2.35198498    0.33623299    0.90942699
 C          3.56708288    1.10892904    0.37953499
 H          1.45434797    0.95627898    0.83569199
 H          2.49388409    0.08156000    1.96442699
 C          4.82170391    0.23869900    0.51230800
 C          4.63934612   -1.04712701   -0.30125901
 H          5.69844103    0.78731602    0.15098099
 H          4.99757099   -0.00688500    1.56566095
 C          3.42212701   -1.81886005    0.22816101
 H          3.28901792   -2.74653292   -0.33847299
 H          3.57536101   -2.08851409    1.27839303
 C          1.94693100   -0.59685600   -1.38063097
 S          0.76979101   -1.93629205    0.74766898
 C          3.34263611    1.46353805   -1.09542096
 H          3.68965793    2.02542996    0.96577603
 C          3.16271710    0.17682400   -1.90976000
 H          2.45507503    2.09818292   -1.19733703
 H          4.19858599    2.03068495   -1.47754502
 H          2.99617910    0.42645001   -2.96266294
 C          4.41718578   -0.69409198   -1.77655697
 H          1.80345905   -1.51705098   -1.95636404
 H          1.04151797    0.00747100   -1.48573995
 H          4.30194998   -1.60951495   -2.36764407
 H          5.52868605   -1.67752194   -0.20075800
 H          5.28907013   -0.15756200   -2.16664696
 H         -0.33369499   -0.84316802    0.55948699
 H         -5.53657913    1.99013197    0.52917200
 H         -4.74415922    3.55733800    0.83841503
 H         -5.20004177    2.50458503    2.20677090
