53
wb97x-d4 ma-def2-tzvp(-f) cpcm(dmso) E: -1515.687240900605, G: -1515.2765490000002
 C         -3.56067610   -0.68526202   -2.06134200
 C         -3.22381091    0.10366500   -0.80657202
 H         -3.25062490   -1.72755802   -1.93513298
 O         -2.86067200   -0.07956700   -3.15395403
 H         -4.64135695   -0.65101701   -2.22912312
 O         -4.01655722   -0.46152601    0.23311900
 C         -1.73573899   -0.00089600   -0.43013799
 H         -3.48206306    1.15780699   -0.95655102
 C         -1.51815200    0.68177998    0.90312201
 O         -0.90707201    0.64850497   -1.37980103
 H         -1.48004496   -1.06336105   -0.33340099
 C         -3.92424512    0.22522500    1.46637297
 H         -2.85589099   -0.69459200   -3.89602399
 O         -1.42218304    2.04681993    0.82676297
 O         -4.34151077    1.55334997    1.37949800
 H         -1.29390204    0.48160601   -2.25635791
 H         -1.04939497    2.25601912   -0.04583200
 C         -5.74571991    1.68970799    1.16022897
 C         -2.47459507    0.20647401    1.97788095
 H         -4.56944990   -0.33589801    2.15092802
 H         -2.23457503   -0.83660400    2.19604611
 O         -2.33956003    0.92421901    3.18432093
 H         -2.62806201    1.83107603    3.01568007
 C          2.16588902   -0.37005401    0.91519898
 C          3.51234794   -0.72243601    1.56737697
 C          4.59535789   -0.84096199    0.48500800
 H          3.78627300    0.05467700    2.28850508
 H          3.42187309   -1.66772795    2.11300707
 C          4.21032619   -1.94267201   -0.50832200
 C          2.86889005   -1.59329498   -1.16261303
 H          4.98745394   -2.04078603   -1.27438998
 H          4.13429785   -2.90549302    0.00937700
 C          1.78892195   -1.47640204   -0.07776200
 H          0.82417703   -1.24618495   -0.53630799
 H          1.68625498   -2.42477393    0.45903799
 C          2.30626893    0.96505100    0.17506500
 S          0.93884802   -0.25242999    2.26223302
 C          4.72438383    0.49344999   -0.25963399
 H          5.54746723   -1.09055102    0.96432799
 C          3.38309407    0.84477502   -0.91265899
 H          5.01910686    1.28511703    0.43839100
 H          5.50684118    0.42009699   -1.02303302
 H          3.46764302    1.80180299   -1.43787301
 C          2.99048495   -0.25702199   -1.90363002
 H          1.34935796    1.23761797   -0.27610901
 H          2.57761598    1.74881005    0.88940901
 H          2.03805304   -0.00715300   -2.38367510
 H          2.58432794   -2.38209009   -1.86660194
 H          3.74636412   -0.33487901   -2.69314194
 H         -0.30144700    0.21961799    1.41486204
 H         -6.30672979    1.13841498    1.92250097
 H         -6.02316999    1.32336104    0.16810600
 H         -5.97471380    2.75215197    1.23361301
