53
wb97x-d4 ma-def2-tzvp(-f) cpcm(dmso) E: -1515.687282177, G: -1515.2765450000002
 C         -3.96839905   -2.28801489   -0.23421299
 C         -3.49605298   -0.84117299   -0.30855700
 H         -3.15663695   -2.91783690    0.15118200
 O         -4.43294382   -2.76516199   -1.49145699
 H         -4.80832005   -2.34454489    0.46079400
 O         -3.32196999   -0.40299800    1.03876197
 C         -2.15629601   -0.69742602   -1.03814197
 H         -4.25678682   -0.23635700   -0.81369102
 C         -1.68162501    0.73875999   -0.94985998
 O         -2.33592510   -1.07180703   -2.40141511
 H         -1.42597103   -1.34793794   -0.54729998
 C         -2.98979211    0.96581000    1.17213500
 H         -3.74713707   -2.56513906   -2.14385605
 O         -2.28140712    1.59116805   -1.83911896
 O         -3.96330905    1.81310999    0.64343899
 H         -1.46655297   -1.27389503   -2.77456689
 H         -2.51536894    1.07484198   -2.62778807
 C         -5.17729092    1.81562400    1.39554095
 C         -1.65420699    1.26784396    0.46709800
 H         -2.88516593    1.12679803    2.25047207
 H         -0.88660699    0.71951401    1.01699805
 O         -1.32535303    2.63697696    0.54148602
 H         -2.05926609    3.13248205    0.15392900
 C          2.13449407    0.09163900   -0.88064098
 C          2.24010110    1.30732799    0.04809200
 C          3.29802203    1.04724205    1.12905395
 H          2.50856209    2.19024205   -0.54044402
 H          1.27010202    1.50432706    0.51350600
 C          2.90166998   -0.18944900    1.94365799
 C          2.81084704   -1.40506899    1.01539695
 H          3.64285994   -0.37292400    2.72927403
 H          1.93651104   -0.02076000    2.43484402
 C          1.75106502   -1.14802599   -0.06590700
 H          1.67009604   -2.01290607   -0.73171198
 H          0.77378798   -0.99727702    0.40238401
 C          3.49987507   -0.14465301   -1.54559505
 S          0.94764102    0.40272900   -2.23488903
 C          4.65718412    0.80704099    0.46323600
 H          3.35724711    1.92070603    1.78638601
 C          4.56098795   -0.40730801   -0.46791601
 H          4.95766306    1.69358397   -0.10638400
 H          5.42294502    0.63155001    1.22679496
 H          5.52592421   -0.57611799   -0.95656502
 C          4.16823816   -1.64552796    0.34531599
 H          3.43556404   -1.00078905   -2.22537303
 H          3.77574205    0.73304302   -2.13933206
 H          4.11173201   -2.52189398   -0.30998901
 H          2.52205610   -2.28952098    1.59238005
 H          4.93109703   -1.85027206    1.10445201
 H         -0.35179600    0.63838601   -1.39015806
 H         -5.67676401    0.84508801    1.33322501
 H         -5.81590223    2.58317399    0.96014899
 H         -4.97517300    2.05577707    2.44488311
