53
wb97x-d4 ma-def2-tzvp(-f) cpcm(dmso) E: -1515.685918130012, G: -1515.2765296300001
 C         -3.98182011   -2.40272188    0.13954800
 C         -3.48992705   -0.99860400   -0.14550699
 H         -4.13904476   -2.92886209   -0.80188900
 O         -5.23104286   -2.39242911    0.82368898
 H         -3.22355103   -2.94062090    0.72193199
 O         -3.22746992   -0.39527500    1.12688005
 C         -2.20513010   -0.98847997   -0.98819000
 H         -4.27138901   -0.43687299   -0.66893703
 C         -1.69744396    0.43500000   -1.08026099
 O         -2.41250610   -1.55620396   -2.26653004
 H         -1.45178103   -1.59887004   -0.48325399
 C         -2.89110899    0.97563398    1.05725098
 H         -5.10344601   -1.91276801    1.65133202
 O         -2.36086297    1.14370894   -2.05098796
 O         -3.88839006    1.75104296    0.47111401
 H         -2.93842697   -0.93558699   -2.78828597
 H         -2.26426911    2.08804393   -1.85307896
 C         -5.08049822    1.80841506    1.25538099
 C         -1.58259702    1.13063395    0.25672901
 H         -2.73128295    1.28028405    2.09885192
 H         -0.80668300    0.62750298    0.84347802
 O         -1.24443698    2.47967291   -0.00267900
 H         -1.31411195    2.99043298    0.81295800
 C          2.15057993    0.00934700   -1.08090794
 C          1.83477497   -1.16825497   -0.15178800
 C          2.92612910   -1.29218805    0.92110300
 H          0.86180401   -1.01684797    0.32484299
 H          1.77392995   -2.08956003   -0.73958200
 C          4.27758503   -1.54025602    0.24199501
 C          4.60322618   -0.36639500   -0.68784398
 H          5.06379795   -1.64537704    0.99773699
 H          4.24306679   -2.47420812   -0.32993400
 C          3.50855589   -0.23988301   -1.75704205
 H          3.74030495    0.58848798   -2.43477798
 H          3.45915890   -1.15636003   -2.35418200
 C          2.23266792    1.30457902   -0.26408201
 S          0.91957802    0.15140601   -2.42213392
 C          2.98951507    0.00390300    1.73647904
 H          2.68317699   -2.13216710    1.57982695
 C          3.32265997    1.17728496    0.80834401
 H          2.02856898    0.18110000    2.23294091
 H          3.75223899   -0.08292800    2.51823211
 H          3.36452508    2.10614896    1.38645804
 C          4.67398310    0.92865503    0.13008100
 H          2.45673490    2.14097309   -0.93367898
 H          1.26665902    1.50925398    0.20479999
 H          4.92521191    1.77140605   -0.52366400
 H          5.56271315   -0.54287499   -1.18457496
 H          5.46467304    0.85060197    0.88440400
 H         -0.38523600    0.29759499   -1.57404304
 H         -5.56972218    0.83152401    1.29832101
 H         -5.74109077    2.52618408    0.77067000
 H         -4.85255480    2.14576888    2.27245498
