53
wb97x-d4 ma-def2-tzvp(-f) cpcm(dmso) E: -1515.686760841831, G: -1515.2765243600002
 C         -3.59827089   -1.33142900   -1.81917405
 C         -3.24456406   -0.30710399   -0.75941801
 H         -3.04593611   -1.11217403   -2.73282695
 O         -4.98272705   -1.29096496   -2.14869308
 H         -3.31211996   -2.32979012   -1.46553600
 O         -3.96440697   -0.68419302    0.41957000
 C         -1.73662698   -0.28710699   -0.46150899
 H         -3.56391692    0.68817502   -1.08758497
 C         -1.48260105    0.60217202    0.73776400
 O         -0.99338102    0.11575300   -1.59464204
 H         -1.42043900   -1.30445302   -0.21363300
 C         -3.85460305    0.23947400    1.48466694
 H         -5.47753286   -1.45910001   -1.33731103
 O         -1.39036405    1.92413402    0.39220300
 O         -4.30177212    1.51333296    1.14102602
 H         -1.13227105    1.06336701   -1.72351301
 H         -1.56311405    2.44800305    1.19139898
 C         -5.70963907    1.56332397    0.90838403
 C         -2.38699007    0.31694499    1.92445099
 H         -4.46628904   -0.17925200    2.29139090
 H         -2.13007808   -0.66725802    2.32715106
 O         -2.24735093    1.33024704    2.90700507
 H         -1.49029303    1.11450005    3.46555090
 C          2.23890591   -0.21838599    0.77196097
 C          3.62204909   -0.36994600    1.42348599
 C          4.70116520   -0.41820899    0.33251399
 H          3.80612206    0.47364700    2.09675288
 H          3.65087295   -1.28736901    2.02101111
 C          4.44369316   -1.61311603   -0.59235799
 C          3.06519508   -1.46393704   -1.24540496
 H          5.22097015   -1.66099501   -1.36300504
 H          4.48839808   -2.54685807   -0.02072600
 C          1.98784101   -1.41588795   -0.15308200
 H          0.99766397   -1.32655597   -0.60700703
 H          2.00543308   -2.33834410    0.43587399
 C          2.20700312    1.07939899   -0.04342600
 S          1.01336503   -0.17546000    2.12572408
 C          4.66218710    0.87873298   -0.48447099
 H          5.68063307   -0.52477300    0.80992103
 C          3.28368592    1.02889001   -1.13676596
 H          4.86440420    1.73731005    0.16561800
 H          5.44174385    0.85741502   -1.25395596
 H          3.24717593    1.95778298   -1.71524298
 C          3.02017903   -0.16620900   -2.06034803
 H          1.22042596    1.20441794   -0.49615201
 H          2.38167191    1.93187404    0.62066603
 H          2.04171610   -0.05902700   -2.54120207
 H          2.87104797   -2.31911612   -1.90093005
 H          3.77478409   -0.19695300   -2.85419989
 H         -0.24091201    0.21372101    1.26738298
 H         -6.25407696    1.17646205    1.77674198
 H         -5.98251104    0.98436803    0.02171700
 H         -5.96554804    2.61051989    0.75218898
