53
wb97x-d4 ma-def2-tzvp(-f) cpcm(dmso) E: -1515.687214829112, G: -1515.27649298
 C         -3.73021698   -2.18087792    1.08302402
 C         -3.37804389   -0.88919401    0.36311001
 H         -2.86715889   -2.52215099    1.66361701
 O         -4.08588123   -3.14950490    0.09046600
 H         -4.56836414   -1.99800396    1.76230705
 O         -3.10906005    0.06100000    1.39028096
 C         -2.14099503   -1.03959095   -0.53947002
 H         -4.22739601   -0.56424499   -0.24788900
 C         -1.75059998    0.32309499   -1.07369697
 O         -2.40469790   -1.86663198   -1.66207397
 H         -1.31899703   -1.43978500    0.06523000
 C         -2.85764599    1.37014198    0.91753298
 H         -4.06507111   -4.02475977    0.49323699
 O         -2.49730492    0.73627198   -2.14641809
 O         -3.92951298    1.90418100    0.20339800
 H         -2.96393991   -2.59755397   -1.34868002
 H         -2.78578305   -0.06536300   -2.61424899
 C         -5.06012392    2.20366001    1.02219296
 C         -1.61883700    1.37709796    0.00571700
 H         -2.66134095    1.96340799    1.81721699
 H         -0.77105701    1.10956299    0.63949603
 O         -1.36468697    2.66417909   -0.51135701
 H         -2.15701604    2.94561100   -0.98801100
 C          2.09187698   -0.02214900   -1.13540804
 C          1.70456302   -0.98597997   -0.00962100
 C          2.81097198   -1.01693499    1.05337095
 H          0.76797199   -0.65933198    0.45064700
 H          1.54143298   -1.98638797   -0.42242301
 C          4.12128878   -1.48854303    0.41168401
 C          4.51690578   -0.52091199   -0.70949000
 H          4.91422510   -1.52970004    1.16652906
 H          3.99747109   -2.49959397    0.00768000
 C          3.40890598   -0.49475300   -1.77169394
 H          3.68640590    0.18007100   -2.58843899
 H          3.27325010   -1.49465406   -2.19634390
 C          2.29507804    1.38535094   -0.56013399
 S          0.83655798   -0.01966500   -2.46242905
 C          2.99469995    0.39153200    1.63086998
 H          2.51963711   -1.70859301    1.85042906
 C          3.39562106    1.35593700    0.50906301
 H          2.06243205    0.72804898    2.09854007
 H          3.76735902    0.37990299    2.40752912
 H          3.52445006    2.36396503    0.91662598
 C          4.70743704    0.88450599   -0.12822600
 H          2.57013988    2.07110310   -1.36759806
 H          1.35817397    1.74614096   -0.12630200
 H          5.01098585    1.58031297   -0.91838199
 H          5.44749117   -0.85719901   -1.17782402
 H          5.50523710    0.87137198    0.62260097
 H         -0.45932701    0.16293700   -1.59493196
 H         -5.78649378    2.70665908    0.38515499
 H         -4.77026892    2.86649895    1.84458995
 H         -5.50075388    1.28951395    1.42895103
