53
wb97x-d4 ma-def2-tzvp(-f) cpcm(dmso) E: -1515.68721392435, G: -1515.27648528
 C         -4.13504124   -1.64358604    0.67888701
 C         -3.51492310   -0.43194601    0.00214000
 H         -3.39692402   -2.11473894    1.33593798
 O         -4.54683495   -2.55058408   -0.34952199
 H         -4.99322605   -1.32309103    1.27726996
 O         -3.21208811    0.48311701    1.05166304
 C         -2.22708297   -0.78231198   -0.76150101
 H         -4.23600721    0.00775300   -0.69582897
 C         -1.58256602    0.49597299   -1.25409806
 O         -2.49073100   -1.58211303   -1.90403402
 H         -1.54253900   -1.28869498   -0.07082500
 C         -2.71882701    1.73296702    0.60790801
 H         -4.68061209   -3.42060804    0.04283100
 O         -2.13712001    0.99704599   -2.40282893
 O         -3.61974096    2.41076112   -0.21202300
 H         -3.19449997   -2.20549798   -1.65646899
 H         -2.49370289    0.24051499   -2.89796305
 C         -4.78735924    2.85438108    0.47921601
 C         -1.40698898    1.53823900   -0.17112499
 H         -2.52849507    2.30205202    1.52444994
 H         -0.68044603    1.15746701    0.54945600
 O         -0.90719402    2.76065803   -0.66483498
 H         -1.58777201    3.14218712   -1.23524594
 C          2.17466497   -0.34014300   -0.89336699
 C          2.42562699    1.04536498   -0.28527400
 C          3.41467810    0.93080801    0.88317102
 H          2.82533503    1.71242595   -1.05544901
 H          1.48322296    1.47520697    0.06384100
 C          2.83898211   -0.00560300    1.95131195
 C          2.60590696   -1.39329302    1.34307003
 H          3.53275895   -0.07978300    2.79605389
 H          1.89501905    0.39761201    2.33526897
 C          1.61203098   -1.27867901    0.18040501
 H          1.42182600   -2.26348090   -0.25776201
 H          0.65826499   -0.89015299    0.54964602
 C          3.50885391   -0.90549999   -1.40573096
 S          1.06408203   -0.24057600   -2.34055400
 C          4.74315786    0.36551601    0.36827600
 H          3.57766104    1.92508996    1.31154704
 C          4.50523710   -1.01971102   -0.24357300
 H          5.16999388    1.03936803   -0.38302201
 H          5.46343803    0.29120800    1.19052994
 H          5.44843292   -1.42307901   -0.62577498
 C          3.93285394   -1.95908594    0.82403201
 H          3.34237289   -1.89004195   -1.85481596
 H          3.91165590   -0.24800000   -2.18351603
 H          3.77338791   -2.95638990    0.39884499
 H          2.19046688   -2.06489706    2.10140395
 H          4.64447594   -2.06274104    1.65049195
 H         -0.28259900    0.13179000   -1.62522101
 H         -5.35063124    3.47359300   -0.21769100
 H         -4.50920105    3.44738197    1.35722601
 H         -5.40122700    2.00584602    0.79317498
