53
wb97x-d4 ma-def2-tzvp(-f) cpcm(dmso) E: -1515.687292662082, G: -1515.27647943
 C         -3.44539595   -2.26955795   -0.73246503
 C         -3.21227908   -0.78722399   -0.49167201
 H         -3.04180002   -2.84693193    0.10559400
 O         -2.78114295   -2.61898994   -1.95213795
 H         -4.52049017   -2.45699096   -0.81149501
 O         -3.97495794   -0.45453799    0.66483200
 C         -1.72958302   -0.46012500   -0.24244000
 H         -3.56236911   -0.21666799   -1.35893095
 C         -1.60274196    0.99817502    0.14577600
 O         -0.94540399   -0.65658599   -1.40780103
 H         -1.37521696   -1.08239698    0.58893001
 C         -3.97707295    0.92683101    0.97269499
 H         -2.69909406   -3.57839108   -1.99416304
 O         -1.60708594    1.86574900   -0.91489702
 O         -4.50365400    1.70824695   -0.05546600
 H         -1.29320395   -1.44756496   -1.85397696
 H         -1.23214805    1.38680995   -1.67282498
 C         -5.90822315    1.53120995   -0.23887999
 C         -2.54570293    1.40816796    1.25924206
 H         -4.58993196    1.01493895    1.87613702
 H         -2.22271299    0.89900899    2.17020893
 O         -2.50566006    2.79348612    1.52238798
 H         -2.85787702    3.24580908    0.74419999
 C          2.15326309    0.57249200    0.81599498
 C          1.89310205   -0.93513602    0.90150100
 C          3.03196907   -1.70000005    0.21251900
 H          1.81920302   -1.23171604    1.95253396
 H          0.94128799   -1.17096198    0.41905501
 C          3.11199498   -1.27601600   -1.25938702
 C          3.38494492    0.23075899   -1.34258699
 H          3.91131496   -1.82905805   -1.76503503
 H          2.17239094   -1.51500106   -1.76969504
 C          2.24675488    0.99692202   -0.65441298
 H          2.42939901    2.07472610   -0.71035999
 H          1.29772699    0.79196101   -1.15718997
 C          3.48398304    0.89291400    1.51555502
 S          0.86061800    1.51711798    1.69455194
 C          4.35663986   -1.37753999    0.91310602
 H          2.83100009   -2.77437901    0.27757499
 C          4.62518597    0.12910800    0.82897002
 H          4.31176519   -1.69230199    1.96180999
 H          5.17579222   -1.92964399    0.43919301
 H          5.56540585    0.36606801    1.33735096
 C          4.71012020    0.55193299   -0.64199901
 H          3.67338204    1.97043502    1.46990395
 H          3.42348599    0.60861099    2.57145405
 H          4.92069197    1.62501502   -0.71194100
 H          3.43851399    0.53864998   -2.39201689
 H          5.53280210    0.02251000   -1.13532197
 H         -0.37333101    1.14551103    0.78668499
 H         -6.44182301    1.71358299    0.70016903
 H         -6.13141680    0.52182102   -0.59499902
 H         -6.22242498    2.25915289   -0.98583800
