53
wb97x-d4 ma-def2-tzvp(-f) cpcm(dmso) E: -1515.685851566737, G: -1515.2764786
 C         -3.48492408   -0.49311000   -2.32858706
 C         -3.17628503    0.20285700   -1.01618099
 H         -4.54254580   -0.33602700   -2.56799412
 O         -3.17630911   -1.88294601   -2.29975605
 H         -2.87949491   -0.04952100   -3.11931205
 O         -4.00389194   -0.41237101   -0.02337400
 C         -1.69780004    0.07416400   -0.60960197
 H         -3.43124604    1.26433098   -1.11514103
 C         -1.51731598    0.65639800    0.77441698
 O         -0.85257101    0.68389702   -1.56462502
 H         -1.44342005   -0.98704499   -0.58177000
 C         -3.93768692    0.19716600    1.24923801
 H         -3.73307204   -2.29219604   -1.62650502
 O         -1.41334498    2.02461410    0.74461901
 O         -4.33119392    1.53347194    1.22963405
 H         -0.93974102    1.64211595   -1.47555304
 H         -1.64038002    2.36368799    1.62411904
 C         -5.71577787    1.70404303    0.92789799
 C         -2.49794412    0.10215700    1.78336203
 H         -4.61444902   -0.39251500    1.87977099
 H         -2.28312397   -0.96443403    1.91372299
 O         -2.30116510    0.81942397    2.98716593
 H         -2.99163508    0.58082098    3.61721992
 C          2.17221904   -0.36752999    0.86636603
 C          3.49551105   -0.76299202    1.54120398
 C          4.61025906   -0.83573902    0.48738301
 H          3.75228310   -0.02540300    2.30868292
 H          3.38205504   -1.73370099    2.03557491
 C          4.24873590   -1.88388598   -0.57090300
 C          2.92956305   -1.49263704   -1.24667704
 H          5.04791212   -1.94904602   -1.31755996
 H          4.15203714   -2.87079597   -0.10455700
 C          1.81838405   -1.42071497   -0.19048800
 H          0.86969101   -1.16050804   -0.66591400
 H          1.69291103   -2.39338803    0.29558700
 C          2.34296608    1.00152099    0.19819200
 S          0.90369803   -0.30464700    2.17659712
 C          4.76956797    0.53274101   -0.18561199
 H          5.54595709   -1.11605203    0.98177099
 C          3.45116806    0.92630798   -0.86135298
 H          5.04790306    1.28691196    0.55906302
 H          5.57426500    0.49086899   -0.92798901
 H          3.55810499    1.90725899   -1.33588505
 C          3.08214498   -0.12257300   -1.91692698
 H          1.39966094    1.30404699   -0.26366699
 H          2.59840107    1.74626398    0.95869398
 H          2.14665794    0.15810999   -2.41288304
 H          2.66153693   -2.24347901   -1.99712503
 H          3.86166000   -0.16726200   -2.68571091
 H         -0.30649501    0.17473100    1.30157995
 H         -6.33146191    1.09548402    1.59936404
 H         -5.92889309    1.42846203   -0.10851400
 H         -5.94307709    2.75866294    1.07893896
