53
wb97x-d4 ma-def2-tzvp(-f) cpcm(dmso) E: -1515.686360749356, G: -1515.27638284
 C         -5.10108709   -1.58174801    0.57770801
 C         -4.02176380   -0.63111901    0.07236600
 H         -4.71846104   -2.14657998    1.43722701
 O         -5.56871080   -2.45678401   -0.44161701
 H         -5.95642805   -0.98931998    0.90776497
 O         -3.86651397    0.37444201    1.07269299
 C         -2.67292905   -1.32808805   -0.13310599
 H         -4.34819508   -0.18410900   -0.87264001
 C         -1.61004198   -0.30224201   -0.48819900
 O         -2.81667900   -2.27234507   -1.19251299
 H         -2.39341688   -1.82621002    0.80100298
 C         -2.98726106    1.42053401    0.70826799
 H         -4.79125786   -2.86838102   -0.84368098
 O         -1.59744501    0.06942900   -1.80553102
 O         -3.39463210    2.09081697   -0.44571200
 H         -2.15274692   -2.96635699   -1.08902597
 H         -1.90704203   -0.69044697   -2.32531691
 C         -4.59839582    2.83804297   -0.27100301
 C         -1.56972897    0.87365001    0.46612501
 H         -2.98319888    2.10005498    1.56743705
 H         -1.20737195    0.51019299    1.43051505
 O         -0.69273400    1.89287400    0.04414000
 H         -1.05996299    2.27287507   -0.76494002
 C          2.11984110   -0.95842898    0.07246200
 C          3.37967896   -1.83616304    0.13494100
 C          4.62896490   -0.94350499    0.15862399
 H          3.34881902   -2.46324492    1.03232598
 H          3.40898705   -2.50004005   -0.73525703
 C          4.66760921   -0.08454100   -1.11076498
 C          3.41287994    0.79351902   -1.17116404
 H          5.56532001    0.54358798   -1.10764503
 H          4.71848583   -0.72659600   -1.99725795
 C          2.16597104   -0.10173700   -1.19771397
 H          1.26352501    0.51188302   -1.25863004
 H          2.18850803   -0.75429797   -2.07628012
 C          2.08447003   -0.05069500    1.30740798
 S          0.68555897   -2.09033799    0.05311600
 C          4.58515501   -0.03262000    1.39081097
 H          5.51775789   -1.58123696    0.20099799
 C          3.33025098    0.84517002    1.33125305
 H          4.57616997   -0.63746202    2.30448890
 H          5.48217821    0.59577203    1.42115200
 H          3.28850198    1.49177694    2.21378708
 C          3.36407709    1.70346904    0.06171100
 H          1.18257701    0.56546003    1.28428805
 H          2.04517388   -0.66801602    2.21040010
 H          2.47728705    2.34524202    0.01939700
 H          3.43239093    1.40394294   -2.07988191
 H          4.24257994    2.35815310    0.07678200
 H         -0.44205701   -1.03238702   -0.23419601
 H         -4.50392103    3.52181196    0.57955098
 H         -5.45108509    2.17273402   -0.11081700
 H         -4.74963713    3.40960312   -1.18584800
