53
wb97x-d4 ma-def2-tzvp(-f) cpcm(dmso) E: -1515.687090573084, G: -1515.27636136
 C         -3.84006906   -1.19973099    1.96484005
 C         -3.46344495   -0.61273301    0.61688697
 H         -4.77481985   -0.73680401    2.30012703
 O         -2.81599402   -1.02725506    2.93960810
 H         -4.00035286   -2.27288890    1.85778701
 O         -3.25824094    0.78780901    0.83397597
 C         -2.18479609   -1.23877895    0.03675100
 H         -4.29309988   -0.77095598   -0.08156500
 C         -1.75949395   -0.46094200   -1.18855202
 O         -2.36341405   -2.61427903   -0.24140000
 H         -1.39966905   -1.16572905    0.79063100
 C         -3.00816798    1.53541601   -0.33898300
 H         -2.67693710   -0.07876200    3.05022907
 O         -2.43403196   -0.86271203   -2.31346202
 O         -4.04401207    1.44057000   -1.26604903
 H         -2.92062593   -2.69142699   -1.02706099
 H         -2.38990092   -0.13845900   -2.95835090
 C         -5.25339699    2.04992700   -0.81456101
 C         -1.70614100    1.04027104   -0.98286802
 H         -2.88887906    2.57000399    0.00180400
 H         -0.90563500    1.27176905   -0.27490801
 O         -1.51314700    1.71169603   -2.21550894
 H         -0.57558399    1.66527402   -2.44256592
 C          2.09778190   -0.71218503   -0.73882699
 C          3.37116289   -1.57340503   -0.78708202
 C          4.42445993   -0.99928701    0.17020100
 H          3.12619090   -2.60214090   -0.50453001
 H          3.76378703   -1.59305000   -1.80948603
 C          4.76511097    0.43590200   -0.24669500
 C          3.49862909    1.29778898   -0.19008300
 H          5.52877617    0.84798598    0.42205301
 H          5.17803812    0.44288400   -1.26171005
 C          2.44719195    0.72306198   -1.14833105
 H          1.54465997    1.34218502   -1.12704694
 H          2.82752395    0.72545803   -2.17456007
 C          1.54948795   -0.71509898    0.69146901
 S          0.91949701   -1.46635699   -1.91638398
 C          3.86697292   -1.00124204    1.59879196
 H          5.32336378   -1.62212503    0.12183100
 C          2.59982800   -0.14035900    1.65239203
 H          3.63765192   -2.02646208    1.91014302
 H          4.61711121   -0.60673100    2.29297090
 H          2.19074297   -0.14601301    2.66784811
 C          2.93986702    1.29664004    1.23768103
 H          0.64253402   -0.10715100    0.74461597
 H          1.28396595   -1.73635495    0.98251301
 H          2.04278493    1.92393804    1.28971100
 H          3.73546600    2.32275605   -0.49330401
 H          3.67760491    1.71930099    1.92860997
 H         -0.43122301   -0.84659898   -1.41955197
 H         -5.94967794    2.02455807   -1.65190494
 H         -5.07112980    3.08895397   -0.51892197
 H         -5.67831993    1.50186706    0.03078200
