55
wb97x-d4 ma-def2-tzvp(-f) cpcm(dmso) E: -1285.245329077734, G: -1284.82525045
 C         -0.10764400   -3.00843501    0.80489999
 C          0.43400201   -1.98240101    1.80147898
 O         -0.50425100   -1.66322196    2.81398106
 C          0.84153801   -0.70675802    1.08214402
 O          1.38416398    0.18951599    1.97106004
 C          1.70920503   -0.96724403   -0.15549400
 C          1.17279303   -2.13256097   -0.99116600
 C          2.19858003   -2.57108092   -2.01214910
 O          1.57978797   -3.46628594   -2.93681502
 O          0.87284303   -3.26810694   -0.17672800
 O          1.75407505    0.17944500   -0.97270697
 O         -1.30023003   -2.52398610    0.26041499
 H          0.26776499   -1.80403101   -1.51209104
 H         -0.27888900   -3.97092199    1.30167997
 H         -0.15531901   -0.22943200    0.65265501
 H          2.71364188   -1.22646999    0.20998301
 C         -1.96866298   -3.47300196   -0.56808800
 H         -0.55450600   -2.40733695    3.42521405
 H          2.57811999   -1.68485498   -2.52789092
 H          3.02939010   -3.06409502   -1.49317503
 H          2.57717705    0.70377302   -0.76273203
 H          1.88679504    0.93934798    1.52943897
 H          2.23703694   -3.70898008   -3.59833694
 H         -2.14550996   -4.40402317   -0.01841500
 H         -1.38795996   -3.68988109   -1.46888900
 H         -2.92272401   -3.02748203   -0.84938598
 H          1.34111404   -2.41530704    2.24090910
 C         -3.63075495    1.34933496    0.58639699
 C         -2.46063995    0.45596999    1.08637595
 C         -3.06754494    2.38974404   -0.38752201
 C         -2.55393410    1.66474998   -1.63727701
 C         -1.58449399    0.53447700   -1.18946803
 N         -1.30394804    0.75173098    0.23405500
 H         -4.10273123    1.83383000    1.44295800
 H         -2.17998505    0.68528700    2.11334705
 H         -3.84135294    3.10959911   -0.65974802
 H         -3.38152695    1.22672296   -2.19789791
 H         -0.63927501    0.56709701   -1.72709703
 H         -4.38227701    0.73417699    0.08697400
 H         -2.68019295   -0.60555500    1.00179803
 C         -1.89084899    3.10753393    0.28336000
 H         -2.03176093    2.36537504   -2.29232407
 H         -2.02900100   -0.45396501   -1.29083300
 C         -0.74370402    2.07920790    0.49470800
 H         -2.20062995    3.52561092    1.24331605
 H         -1.52600098    3.92445397   -0.34158900
 H         -0.36273599    2.09522104    1.51509798
 H          0.08179500    2.22962904   -0.19823700
 O          2.74031091    2.30678606    1.30387497
 O          3.87886000    1.62692499   -0.49483699
 C          4.57647181    3.64053297    0.59048897
 C          3.66251206    2.43390298    0.45143101
 H          5.20528889    3.76539993   -0.29060400
 H          5.21433306    3.49937201    1.46743202
 H          3.98143196    4.54066420    0.75602400
