55
wb97x-d4 ma-def2-tzvp(-f) cpcm(dmso) E: -1285.246371418506, G: -1284.82490477
 C          0.83496398   -2.36907601    1.03769004
 C          1.65891004   -1.09419703    0.88625801
 O          1.50389004   -0.29190701    2.02715111
 C          1.27653396   -0.36332399   -0.40467200
 O          2.04457808    0.74032402   -0.68607199
 C          1.25104904   -1.29197502   -1.61035097
 C          0.51179802   -2.59963202   -1.30470800
 C          0.73833102   -3.65231204   -2.37942195
 O          0.19170401   -3.16377997   -3.60835910
 O          0.99912602   -3.19147205   -0.10324100
 O          0.63933098   -0.59940302   -2.69094992
 O         -0.50153399   -2.02002311    1.24734199
 H         -0.56030399   -2.39297390   -1.21857297
 H          1.21163404   -2.96524811    1.87584102
 H          0.15950200    0.00536400   -0.24773601
 H          2.29660010   -1.53353202   -1.85250795
 C         -1.32803595   -3.13006401    1.59111297
 H          2.33750105    0.23530000    2.16641498
 H          1.81244302   -3.83766603   -2.48283911
 H          0.24388100   -4.58163404   -2.08008695
 H          0.48618901   -1.25903296   -3.38595510
 H          2.20812702    1.33242500    0.11056100
 H          0.52935100   -3.70609999   -4.32984781
 H         -0.91576701   -3.66072607    2.45616102
 H         -1.42577004   -3.82451797    0.75199997
 H         -2.30801010   -2.72583604    1.84397495
 H          2.70442104   -1.41165400    0.77165902
 C         -3.48424506    0.92408103   -0.92383599
 C         -2.22307706    0.02216100   -0.80492300
 C         -3.22306299    2.23185492   -0.16965000
 C         -2.08675694    2.98805499   -0.86779898
 C         -0.86504799    2.03438091   -1.00391698
 N         -1.16205204    0.84138602   -0.20830800
 H         -4.34293985    0.40007001   -0.50070697
 H         -2.38815498   -0.83064401   -0.14923599
 H         -4.12662697    2.84389305   -0.15506400
 H         -2.39490509    3.31952691   -1.86089206
 H          0.04956100    2.48321795   -0.61862803
 H         -3.69558311    1.13044000   -1.97509098
 H         -1.87426805   -0.32631499   -1.77529204
 C         -2.78718495    1.89663696    1.25997102
 H         -1.80787098    3.86967802   -0.28708100
 H         -0.70211703    1.71337795   -2.03129101
 C         -1.41949499    1.15941596    1.20163298
 H         -3.53253508    1.26002705    1.74146104
 H         -2.68097711    2.80518389    1.85533595
 H         -1.42249596    0.22707599    1.76073694
 H         -0.59990102    1.78550804    1.55104601
 O          2.67866397    2.56890798    1.04777098
 O          3.65925288    1.15953898    2.47540808
 C          4.40596819    3.42928696    2.44862390
 C          3.50954390    2.30256009    1.96150696
 H          5.26432085    3.49910212    1.77355802
 H          4.77483702    3.23183298    3.45515394
 H          3.87670588    4.38243914    2.41866899
