55
wb97x-d4 ma-def2-tzvp(-f) cpcm(dmso) E: -1285.243714723601, G: -1284.8239637000001
 C         -2.20455790   -0.47130799    1.22891700
 C         -1.22102499   -1.47256899    0.62436002
 O         -0.26238501   -1.80239201    1.60262001
 C         -0.62148201   -0.90047598   -0.66352397
 O          0.19493100   -1.74682903   -1.37806702
 C         -1.69494796   -0.35302401   -1.59798503
 C         -2.65758491    0.57063401   -0.86544901
 C         -3.84876609    0.98404300   -1.71038699
 O         -4.61708403   -0.12662300   -2.16077995
 O         -3.18573403   -0.10689800    0.27841401
 O         -1.11605406    0.37423900   -2.67169809
 O         -1.48802197    0.63590503    1.69225502
 H         -2.13119197    1.47920203   -0.55487502
 H         -2.75994992   -0.93790501    2.04973793
 H          0.03833300    0.03117700   -0.33229700
 H         -2.25867009   -1.21328402   -1.97969103
 C         -2.28877902    1.55555499    2.43210506
 H          0.30817699   -2.51993608    1.24856102
 H         -4.46932411    1.67013001   -1.12326598
 H         -3.49428797    1.50784504   -2.59862399
 H         -0.51541102   -0.22209799   -3.13568997
 H          0.68667299   -2.40731692   -0.79005200
 H         -4.96061516   -0.57874298   -1.38071597
 H         -1.60970700    2.29985404    2.84732604
 H         -2.81066704    1.04036796    3.24580312
 H         -3.02126503    2.04958296    1.78762496
 H         -1.80924296   -2.35636401    0.33918700
 C          3.38348794    1.64776194   -1.03072405
 C          2.10077596    0.80329603   -1.27087605
 C          3.10451007    2.64251494    0.10096600
 C          2.89579701    1.85874701    1.40049601
 C          1.81875503    0.76585799    1.14991498
 N          1.19825399    1.06384099   -0.14684200
 H          3.64406490    2.16952109   -1.95313799
 H          1.58409595    1.09451699   -2.18412089
 H          3.94103408    3.33525801    0.20761999
 H          3.82388210    1.38093305    1.71895301
 H          1.03682601    0.76967299    1.90529299
 H          4.21662903    0.99528402   -0.76165700
 H          2.31007791   -0.26530799   -1.30204403
 C          1.81834996    3.41181707   -0.21966700
 H          2.56789994    2.52950096    2.19753289
 H          2.25133109   -0.23167901    1.08593297
 C          0.62545598    2.41384506   -0.19666100
 H          1.89318204    3.88012600   -1.20325506
 H          1.64270604    4.19665909    0.51797301
 H          0.01397600    2.49257302   -1.09410298
 H         -0.00063500    2.54041505    0.68399602
 O          1.31922400   -3.43946290    0.20734300
 O          0.99953097   -5.08421183   -1.26887798
 C          1.12711096   -5.65122986    1.05847704
 C          1.14760995   -4.67416906   -0.10623600
 H          0.27029300   -5.42260408    1.69835699
 H          2.02911806   -5.52528906    1.66154599
 H          1.05528605   -6.68095589    0.70999098
