55
wb97x-d4 ma-def2-tzvp(-f) cpcm(dmso) E: -1285.243655724518, G: -1284.8238277300002
 C         -2.36830902   -0.18091100    1.24059403
 C         -1.34186196   -1.28960705    1.01089501
 O         -0.50448102   -1.36090398    2.14204311
 C         -0.59623700   -1.04533398   -0.30393299
 O          0.28490001   -2.03039503   -0.68454701
 C         -1.55651104   -0.77027702   -1.45581400
 C         -2.58434701    0.29216501   -1.08675003
 C         -3.67357397    0.45602700   -2.13156509
 O         -4.39664221   -0.74655902   -2.37173700
 O         -3.23865294   -0.07778600    0.13044000
 O         -0.85780197   -0.32435599   -2.60895610
 O         -1.68790901    1.01353896    1.48878205
 H         -2.08528209    1.25945902   -0.96510899
 H         -3.01458502   -0.43646300    2.08733010
 H          0.03733300   -0.04863200   -0.15111201
 H         -2.08324194   -1.70910800   -1.66760099
 C         -2.54451108    2.07397389    1.90850997
 H          0.14179100   -2.08732200    2.01814795
 H         -4.34952116    1.25445497   -1.80561900
 H         -3.22049403    0.74956000   -3.07881904
 H         -0.22315300   -1.01117504   -2.84786510
 H          0.75540501   -2.45370603    0.10602900
 H         -4.81624794   -1.00439703   -1.54186904
 H         -3.13371611    1.76778901    2.77966809
 H         -3.21879506    2.37968898    1.10369003
 H         -1.89949405    2.90956998    2.17925692
 H         -1.90964699   -2.22240710    0.88463002
 C          3.47239304    1.37027502   -0.85030502
 C          2.21741295    0.46481299   -1.00652599
 C          3.08276701    2.60826802   -0.03582600
 C          2.71139693    2.16843700    1.38353002
 C          1.64135802    1.04676902    1.28909194
 N          1.18950796    0.99577302   -0.10774900
 H          3.83250904    1.65562201   -1.84025598
 H          1.81722105    0.48957300   -2.01893497
 H          3.91395712    3.31496406   -0.00722300
 H          3.58615494    1.78707397    1.91317797
 H          0.77443898    1.24275899    1.91479599
 H          4.26872492    0.82097000   -0.34402099
 H          2.41805696   -0.56814897   -0.72568101
 C          1.85662901    3.26317096   -0.68076199
 H          2.31402707    3.01439095    1.94834399
 H          2.04824710    0.06722200    1.53631794
 C          0.65550703    2.27996898   -0.57604003
 H          2.05820394    3.49318290   -1.72900605
 H          1.60455799    4.19434977   -0.17050600
 H          0.17627899    2.11594605   -1.53994298
 H         -0.08679800    2.61202407    0.14707100
 O          1.39006805   -3.12663698    1.36754799
 O          1.70948100   -5.02393007    2.49486399
 C          1.07550800   -5.17755222    0.18867201
 C          1.42207694   -4.40820980    1.45603704
 H          1.25824499   -6.24411821    0.31320199
 H          1.65826702   -4.79618883   -0.65269500
 H          0.01938600   -5.01766300   -0.04590100
