55
wb97x-d4 ma-def2-tzvp(-f) cpcm(dmso) E: -1285.243662287296, G: -1284.82372039
 C         -2.38754392   -0.16905101    1.22768104
 C         -1.36955094   -1.28552103    0.99710500
 O         -0.53977197   -1.37024105    2.13283110
 C         -0.61529100   -1.04066896   -0.31280601
 O          0.25626999   -2.03218794   -0.69845200
 C         -1.56763995   -0.74888498   -1.46739805
 C         -2.58954406    0.31898800   -1.09765697
 C         -3.67264104    0.49520901   -2.14697099
 O         -4.40174198   -0.70164597   -2.39753604
 O         -3.25216198   -0.05259400    0.11447000
 O         -0.85893202   -0.30110601   -2.61375499
 O         -1.69799304    1.01822901    1.48520303
 H         -2.08446908    1.28222299   -0.96889502
 H         -3.03968310   -0.42344001    2.07027888
 H          0.02803400   -0.05186500   -0.15064900
 H         -2.10056901   -1.68203402   -1.68841100
 C         -2.54724789    2.08403897    1.90617096
 H          0.10795200   -2.09477496    2.00468302
 H         -4.34542084    1.29591501   -1.82009304
 H         -3.21306109    0.79118901   -3.09032106
 H         -0.22776601   -0.99111199   -2.85276389
 H          0.72505498   -2.46602511    0.08797000
 H         -4.83027077   -0.95953703   -1.57228303
 H         -1.89608395    2.91104889    2.18832397
 H         -3.14641690    1.77732098    2.77032995
 H         -3.21203899    2.40254903    1.09841204
 H         -1.94500995   -2.21248507    0.86258203
 C          3.48116493    1.33791006   -0.81863803
 C          2.21863103    0.44592100   -0.98957801
 C          3.09561610    2.57838702   -0.00612800
 C          2.70897388    2.13982701    1.40957296
 C          1.63332105    1.02466297    1.30449903
 N          1.18943202    0.98196900   -0.09519700
 H          3.85455298    1.62091196   -1.80432999
 H          1.82628596    0.48071799   -2.00476909
 H          3.93240499    3.27807307    0.02999500
 H          3.57651496    1.75259495    1.94679403
 H          0.76397902    1.22310996    1.92607796
 H          4.26631594    0.77958900   -0.30477101
 H          2.40721393   -0.59061402   -0.71353501
 C          1.88005102    3.24397612   -0.66017902
 H          2.31166697    2.98771501    1.97155499
 H          2.03347492    0.04193100    1.55000603
 C          0.66916698    2.27243805   -0.56193101
 H          2.09087110    3.47048402   -1.70737803
 H          1.63325405    4.17826414   -0.15301999
 H          0.19140001    2.11559796   -1.52774596
 H         -0.07223900    2.60955906    0.15979500
 O          1.36299300   -3.12103295    1.35427105
 O          1.72125697   -5.01231194    2.48034096
 C          1.12014401   -5.17557096    0.16588099
 C          1.42940497   -4.40155077    1.43996501
 H          1.70853996   -4.77966785   -0.66488498
 H          0.06481600   -5.03828812   -0.08591200
 H          1.32433295   -6.23814201    0.29119501
