55
wb97x-d4 ma-def2-tzvp(-f) cpcm(dmso) E: -1285.243673331438, G: -1284.8234988000002
 C         -2.22559500   -0.53579402    1.17510903
 C         -1.22592294   -1.52693999    0.57869798
 O         -0.27573100   -1.84944999    1.56676996
 C         -0.61617601   -0.95124400   -0.70397002
 O          0.20814000   -1.79411197   -1.41164601
 C         -1.67957997   -0.40053099   -1.65072405
 C         -2.64605999    0.51819497   -0.91763401
 C         -3.82180595    0.92528802   -1.78357697
 O         -4.67592096    1.84379399   -1.10994303
 O         -3.19296694   -0.17584300    0.20761500
 O         -1.08771396    0.32802001   -2.71551204
 O         -1.52586198    0.57266301    1.65918803
 H         -2.12188411    1.41692698   -0.57894498
 H         -2.79163790   -1.01300097    1.98246503
 H          0.03889100   -0.01603800   -0.36499301
 H         -2.24012208   -1.26145506   -2.04108405
 C         -2.34767199    1.47807503    2.39381909
 H          0.31103501   -2.55554008    1.21595502
 H         -3.45541692    1.42835295   -2.67846298
 H         -4.37642288    0.02817400   -2.08539295
 H         -0.47343999   -0.26456600   -3.16663790
 H          0.70547402   -2.44791698   -0.81859601
 H         -4.97756004    1.41572797   -0.29921499
 H         -2.87526798    0.95066297    3.19594502
 H         -3.07622409    1.96858799    1.74218094
 H         -1.68312800    2.22675109    2.82426310
 H         -1.80321205   -2.41551495    0.28630599
 C          3.37345910    1.62688899   -1.03218496
 C          2.09723806    0.77715403   -1.28629005
 C          3.08301091    2.60938501    0.10719700
 C          2.87243390    1.81223702    1.39826298
 C          1.80159199    0.71667802    1.13280404
 N          1.18610406    1.02175903   -0.16504000
 H          3.63512897    2.15887403   -1.94844902
 H          1.58401406    1.07339001   -2.19982696
 H          3.91484690    3.30604100    0.22446200
 H          3.80154300    1.33580005    1.71582603
 H          1.01555395    0.71076697    1.88399899
 H          4.20945311    0.97716898   -0.76534301
 H          2.31331301   -0.28987101   -1.32572496
 C          1.79377496    3.37422490   -0.21238300
 H          2.53825307    2.47382689    2.20032310
 H          2.23907900   -0.27835500    1.06327295
 C          0.60646802    2.36949492   -0.20579600
 H          1.87095797    3.85298610   -1.19074404
 H          1.60979903    4.15055990    0.53218901
 H          0.00024400    2.45347905   -1.10632002
 H         -0.02592200    2.48432302    0.67206401
 O          1.34544396   -3.46069694    0.18580000
 O          1.03492498   -5.13282490   -1.26171303
 C          1.20911002   -5.66281605    1.07129097
 C          1.19265795   -4.70310497   -0.10773100
 H          0.36218601   -5.43713284    1.72510695
 H          2.12131405   -5.51502895    1.65380502
 H          1.14580595   -6.69847918    0.73916799
