55
wb97x-d4 ma-def2-tzvp(-f) cpcm(dmso) E: -1285.242533446166, G: -1284.8225585500002
 C         -0.01776100   -2.82617807    1.13696301
 C          0.57097799   -1.67669499    1.94138300
 O         -0.30459800   -1.33194304    2.99783492
 C          0.87936097   -0.48932099    1.03835905
 O          1.42112899    0.52363002    1.79500997
 C          1.68497396   -0.88461202   -0.20404200
 C          1.10349000   -2.14442801   -0.85053599
 C          2.04964399   -2.69838810   -1.89365995
 O          1.37410200   -3.71984911   -2.62717509
 O          0.89336503   -3.17588401    0.11602500
 O          1.66904199    0.13565899   -1.18636596
 O         -1.26585102   -2.44150496    0.64023602
 H          0.15240601   -1.88771105   -1.32816994
 H         -0.11247600   -3.72401404    1.75765395
 H         -0.16119801   -0.09772800    0.61679500
 H          2.71354389   -1.09133005    0.12620801
 C         -1.96317303   -3.50340390   -0.00983500
 H          0.12006500   -0.62879401    3.50503993
 H          2.35818696   -1.88496006   -2.55567193
 H          2.93588996   -3.10327697   -1.39091003
 H          2.16190410    0.90361297   -0.82905000
 H          1.98750496    1.15500903    1.23756695
 H          1.98280704   -4.05987883   -3.29211593
 H         -2.05319500   -4.36696482    0.65799099
 H         -1.45266700   -3.80666804   -0.92785001
 H         -2.95540404   -3.12468910   -0.25385901
 H          1.52838194   -2.03512692    2.34128094
 C         -2.86789703    1.44225001   -1.59735501
 C         -1.82306695    0.38949800   -1.12627900
 C         -3.23363805    2.33400989   -0.40484199
 C         -1.99913800    3.14688993    0.00089100
 C         -0.80763203    2.16783595    0.19044800
 N         -1.36198604    0.81177902    0.20122400
 H         -3.74993610    0.92490500   -1.97861004
 H         -2.25593591   -0.60391802   -1.02477002
 H         -4.05381680    3.00276399   -0.67149800
 H         -1.74101806    3.87507105   -0.76984203
 H         -0.28688499    2.33142805    1.13346505
 H         -2.45113492    2.04612803   -2.40616894
 H         -0.95861900    0.34601301   -1.78664899
 C         -3.63927197    1.44027197    0.77182400
 H         -2.19197893    3.68854189    0.92923301
 H         -0.09402500    2.22571898   -0.62931800
 C         -2.39110708    0.63731700    1.23288703
 H         -4.43216991    0.75341803    0.46831501
 H         -4.00926399    2.03913808    1.60585594
 H         -2.59299803   -0.42663601    1.33036995
 H         -1.98407996    1.01460505    2.17010689
 O          2.80937099    2.09680104    0.28766301
 O          4.63189316    1.54569399    1.45961404
 C          4.88936186    2.99169111   -0.43563500
 C          4.07290506    2.13753510    0.52166700
 H          4.55764198    4.03051901   -0.36074901
 H          4.71072388    2.66376996   -1.46250498
 H          5.95324898    2.93238902   -0.20844901
