55
wb97x-d4 ma-def2-tzvp(-f) cpcm(dmso) E: -1285.243969804668, G: -1284.8225333300002
 C         -2.58471990   -0.54918098    1.08247006
 C         -1.76769400   -1.59924197    0.33282799
 O         -0.87433398   -2.19590211    1.24415600
 C         -1.09066296   -0.96403599   -0.88527501
 O         -0.44599301   -1.83300400   -1.73427606
 C         -2.04962707   -0.11184100   -1.71170294
 C         -2.88484597    0.81893498   -0.83926803
 C         -3.99251390    1.47904396   -1.64095795
 O         -4.69154596    2.47192192   -0.89537102
 O         -3.50493312    0.06980600    0.20675001
 O         -1.33602798    0.68225098   -2.64905906
 O         -1.70494795    0.37012401    1.66139901
 H         -2.23776698    1.59286499   -0.41186100
 H         -3.19879699   -1.02859497    1.85273504
 H         -0.26676801   -0.21276800   -0.44831899
 H         -2.72494698   -0.80435503   -2.23367190
 C         -2.34889293    1.29727304    2.53220201
 H         -0.31111199   -2.84711409    0.77232897
 H         -3.56570101    1.90507305   -2.55317998
 H         -4.72966194    0.72277701   -1.92093801
 H         -0.82611698    0.08415300   -3.20947409
 H          0.06631700   -2.54974794   -1.23685503
 H         -4.09886789    3.22202110   -0.76788402
 H         -3.00529695    1.97275496    1.97623098
 H         -1.56024206    1.87354398    3.01561093
 H         -2.93394208    0.76693398    3.29150295
 H         -2.48534107   -2.33712006   -0.05392200
 C          3.31474805    0.84614903   -0.89866501
 C          1.91671097    0.27511001   -1.26574898
 C          3.15890193    1.76920998    0.31499299
 C          2.76133299    0.92071599    1.52720702
 C          1.54471397    0.04100100    1.13099396
 N          1.02430904    0.56748199   -0.13851100
 H          3.71267009    1.39258397   -1.75555694
 H          1.49870896    0.75416899   -2.14995503
 H          4.09391594    2.29683304    0.51129198
 H          3.58431411    0.27424300    1.83722305
 H          0.74372703    0.07867300    1.86479199
 H          4.00236893    0.02973200   -0.66715503
 H          1.94713998   -0.80392599   -1.41247106
 C          2.03451610    2.77079701    0.02998500
 H          2.49964809    1.56536400    2.36918497
 H          1.82820296   -0.99613601    0.96292800
 C          0.69066501    1.99531305   -0.05240400
 H          2.22310710    3.29272389   -0.91064799
 H          1.96943903    3.51648998    0.82430202
 H          0.11727400    2.26471806   -0.93793303
 H          0.07745900    2.13783097    0.83517700
 O          2.73612809   -3.09555006   -1.15481102
 O          0.73277098   -3.65995312   -0.34820399
 C          2.63132691   -4.13613415    1.00316405
 C          2.01318908   -3.58705211   -0.27217600
 H          3.71938396   -4.09689093    0.96407199
 H          2.30207205   -5.16559505    1.16092396
 H          2.27623010   -3.54447198    1.85180402
