55
wb97x-d4 ma-def2-tzvp(-f) cpcm(dmso) E: -1285.248464377835, G: -1284.82761383
 C         -2.72258806    0.90659302    1.17108202
 C         -1.77585602    0.02269100    1.97193503
 O         -1.18233395    0.77978599    3.01009202
 C         -0.74128300   -0.63154000    1.06581604
 O          0.07986300   -1.42537498    1.82977104
 C         -1.37775600   -1.31377399   -0.14681099
 C         -2.38717699   -0.37563100   -0.81061703
 C         -3.20299697   -1.06003296   -1.89191103
 O         -3.94223905   -2.17862105   -1.41098201
 O         -3.32103109    0.13906300    0.14584900
 O         -0.40217999   -1.67078900   -1.09780705
 O         -2.00947404    1.99877203    0.67268997
 H         -1.84688902    0.45369899   -1.27920496
 H         -3.55356193    1.24673295    1.79869699
 H         -0.07322400    0.23971500    0.60765302
 H         -1.90871596   -2.20172310    0.22014400
 C         -2.84072900    2.99010491    0.07311400
 H         -0.60589999    0.18414700    3.50481296
 H         -3.87358904   -0.32114801   -2.34465909
 H         -2.52718091   -1.43502402   -2.66053796
 H         -0.14837900   -2.62437701   -0.94921100
 H          0.57163101   -2.13654304    1.31154299
 H         -4.57011986   -1.85521102   -0.75385600
 H         -3.61813807    3.31210303    0.77447301
 H         -3.30946302    2.61244893   -0.83985901
 H         -2.19645095    3.83431005   -0.17122400
 H         -2.38682699   -0.78677201    2.39267111
 C          3.54281211    1.04564595   -0.12501100
 C          2.27663589    0.20196800    0.19137800
 C          3.09564304    2.36268902   -0.76928699
 C          2.33789110    3.18589711    0.27836999
 C          1.24086404    2.28498602    0.91185898
 N          1.12133205    1.09414399    0.06210300
 H          4.18790293    0.47980699   -0.79923302
 H          2.13815999   -0.61750197   -0.51180202
 H          3.96130705    2.91818810   -1.13396704
 H          3.01216698    3.53303790    1.06318402
 H          0.27075401    2.77454901    0.94696301
 H          4.10122299    1.24443698    0.79215401
 H          2.29121208   -0.19462700    1.20607102
 C          2.14235902    2.04336905   -1.92659295
 H          1.88011599    4.06107187   -0.18761100
 H          1.51320899    1.95037603    1.91221702
 C          0.83766103    1.43861997   -1.33713901
 H          2.60739398    1.33216202   -2.61276698
 H          1.89595199    2.94615602   -2.48812604
 H          0.53562099    0.53120899   -1.85569596
 H          0.01619200    2.15386105   -1.33952498
 O          1.50547504   -3.39771509    0.95445597
 O          0.26576000   -4.17708111   -0.73513699
 C          1.86380506   -5.64723682    0.25698701
 C          1.16293395   -4.30361509    0.14330100
 H          1.83076894   -6.18856621   -0.68851298
 H          1.34164596   -6.24184418    1.01281905
 H          2.89578700   -5.51759386    0.58488899
