55
wb97x-d4 ma-def2-tzvp(-f) cpcm(dmso) E: -1285.244167699929, G: -1284.82250316
 C         -2.49265409    0.40448400    1.32532597
 C         -1.38435698   -0.46645400    1.90468597
 O         -0.76147300    0.16666400    3.00780606
 C         -0.38899499   -0.88225597    0.82058001
 O          0.56750000   -1.71253705    1.35141003
 C         -1.08922005   -1.41822898   -0.43438900
 C         -2.22412801   -0.49085501   -0.86537099
 C         -3.07663202   -1.08974504   -1.97046995
 O         -3.66804600   -2.33077693   -1.59803903
 O         -3.10827994   -0.22580300    0.22769199
 O         -0.19894400   -1.52517796   -1.52999699
 O         -1.90611601    1.63331103    0.99044901
 H         -1.80107701    0.44880399   -1.23539698
 H         -3.29011512    0.55218101    2.06102204
 H          0.16804500    0.10656900    0.45491901
 H         -1.51259601   -2.39869308   -0.18027499
 C         -2.85108900    2.65720201    0.68006998
 H         -0.67206401    1.10420597    2.79199600
 H         -3.84722209   -0.36246201   -2.24878001
 H         -2.44987798   -1.28509498   -2.84017396
 H          0.41003501   -2.27127409   -1.34265304
 H          0.89648497   -2.38952899    0.67701799
 H         -4.25084591   -2.16294003   -0.84755099
 H         -3.57806802    2.76261997    1.49191499
 H         -3.37462497    2.43305492   -0.25304300
 H         -2.28692794    3.58254504    0.56945801
 H         -1.84293604   -1.38406897    2.28415203
 C          3.64827299    1.28828502   -0.42197701
 C          2.46014190    0.31196401   -0.19204500
 C          3.07784700    2.68089294   -0.71341199
 C          2.39694905    3.20393491    0.55530900
 C          1.40837598    2.11766005    1.06112099
 N          1.25673795    1.13064206   -0.01546200
 H          4.24721622    0.92764902   -1.25979698
 H          2.29182196   -0.33855700   -1.04874206
 H          3.87516189    3.35895300   -1.02218604
 H          3.13081002    3.41188598    1.33557999
 H          0.42767701    2.53606391    1.27934396
 H          4.28666782    1.31995702    0.46337599
 H          2.59439397   -0.29742900    0.70107901
 C          2.02452803    2.56202507   -1.82111597
 H          1.85676801    4.12849617    0.34114301
 H          1.78852606    1.59419203    1.93797600
 C          0.81698900    1.74682200   -1.27376294
 H          2.44877100    2.05805111   -2.69202495
 H          1.67743599    3.54802895   -2.13437009
 H          0.51758897    0.95292300   -1.95494294
 H         -0.04075700    2.38009191   -1.05038905
 O          1.33524299   -3.43166089   -0.42581201
 O          0.96057498   -5.43921423   -1.32286298
 C          0.27280200   -5.07449102    0.94250900
 C          0.89874601   -4.63986921   -0.37545300
 H          0.98302501   -4.91821623    1.75797904
 H         -0.02516600   -6.12162018    0.90850002
 H         -0.60292000   -4.45320320    1.14808500
