55
wb97x-d4 ma-def2-tzvp(-f) cpcm(dmso) E: -1285.243579806277, G: -1284.8224607000002
 C         -2.30017495   -0.41504601    1.21270704
 C         -1.32256198   -1.43889201    0.63916498
 O         -0.38501301   -1.77220094    1.63780200
 C         -0.68909800   -0.89668900   -0.64419401
 O          0.12561500   -1.77108395   -1.32371700
 C         -1.73543894   -0.34496501   -1.60693204
 C         -2.69311595    0.60680300   -0.90354699
 C         -3.85931611    1.03558004   -1.77506602
 O         -4.63878012   -0.06300300   -2.23568797
 O         -3.25587511   -0.04683500    0.23787400
 O         -1.12384796    0.35697901   -2.67937112
 O         -1.57375395    0.68535000    1.67685401
 H         -2.15412688    1.50798905   -0.59302300
 H         -2.87981105   -0.86189002    2.02776694
 H         -0.02070300    0.03007900   -0.31849900
 H         -2.30793691   -1.20000398   -1.98702800
 C         -2.37307906    1.62698495    2.39011693
 H          0.19348700   -2.48401999    1.29342306
 H         -4.47894478    1.73643005   -1.20461798
 H         -3.47761703    1.54785204   -2.65872788
 H         -0.53401703   -0.25898299   -3.13137293
 H          0.59403199   -2.43162608   -0.71155298
 H         -5.01191378   -0.50137103   -1.46143997
 H         -2.91329193    1.13149798    3.20412993
 H         -3.08972597    2.11996794    1.72730398
 H         -1.69046402    2.36906195    2.80336809
 H         -1.91924095   -2.31729889    0.35555100
 C          3.36232591    1.57374501   -1.02079701
 C          2.05791807    0.76453000   -1.26513195
 C          3.10646892    2.57426810    0.11143600
 C          2.87982011    1.79397202    1.41018999
 C          1.78069401    0.72433102    1.15610898
 N          1.16416502    1.04085803   -0.13793200
 H          3.63907194    2.08897591   -1.94219303
 H          1.54762697    1.07632005   -2.17510009
 H          3.95869088    3.24751806    0.21863499
 H          3.79717207    1.29670799    1.72991395
 H          1.00060701    0.74004298    1.91338897
 H          4.17710209    0.89924097   -0.74983698
 H          2.23871207   -0.30906501   -1.30464303
 C          1.83827698    3.37289810   -0.20896301
 H          2.56399202    2.47059798    2.20711088
 H          2.19361401   -0.28130400    1.08634198
 C          0.62223202    2.40351009   -0.18123201
 H          1.92264903    3.83663702   -1.19396996
 H          1.68233299    4.16374302    0.52671200
 H          0.00766500    2.49913096   -1.07500303
 H          0.00408700    2.54234195    0.70318800
 O          1.27970898   -3.42578602    0.28690100
 O          0.46995899   -5.08830786   -0.96952301
 C          1.66959095   -5.65118504    1.02837503
 C          1.08291304   -4.66932297    0.02596900
 H          2.75420308   -5.52187586    1.06613004
 H          1.43412995   -6.67978001    0.75727701
 H          1.27899003   -5.43341208    2.02536011
