55
wb97x-d4 ma-def2-tzvp(-f) cpcm(dmso) E: -1285.244123210467, G: -1284.8223775600002
 C          0.07166200   -2.90582609    0.76344502
 C          0.51835603   -1.84565306    1.76032102
 O         -0.45145300   -1.71741402    2.78163099
 C          0.80072302   -0.52135003    1.06064796
 O          1.21091294    0.40349099    1.99393201
 C          1.72014701   -0.70343202   -0.14868400
 C          1.25300801   -1.87032104   -1.02186894
 C          2.28302693   -2.22981095   -2.08774590
 O          2.38264608   -1.22855902   -3.09408498
 O          1.06406105   -3.04641891   -0.23652899
 O          1.75647402    0.44862601   -0.97718698
 O         -1.16880095   -2.53863692    0.23914500
 H          0.31567100   -1.59468400   -1.51558304
 H          0.01070500   -3.88724208    1.24579597
 H         -0.23568501   -0.13466500    0.61246300
 H          2.72460508   -0.93208098    0.23654599
 C         -1.74994397   -3.54186010   -0.59304500
 H         -0.11220300   -1.08272803    3.42505908
 H          3.25499010   -2.40270805   -1.60783803
 H          1.97172797   -3.15525889   -2.57658792
 H          2.22253895    1.16452003   -0.47688499
 H          1.79384303    1.11785305    1.58814597
 H          2.38533401   -0.37502700   -2.63244104
 H         -2.75328803   -3.19844508   -0.84370899
 H         -1.81014502   -4.49513292   -0.05711100
 H         -1.17018104   -3.67721796   -1.51006305
 H          1.47127402   -2.19342589    2.17992210
 C         -3.81737089    1.11388397    0.64210701
 C         -2.55397701    0.33626899    1.10447598
 C         -3.38935590    2.17596698   -0.37508100
 C         -2.85934591    1.47031105   -1.62844503
 C         -1.75898898    0.45714799   -1.20089304
 N         -1.45523405    0.72359401    0.21039800
 H         -4.29236078    1.57627499    1.50911999
 H         -2.25851202    0.60015702    2.11901999
 H         -4.23599291    2.81459999   -0.63291198
 H         -3.66228008    0.93428499   -2.13745499
 H         -0.84223503    0.58518797   -1.77347696
 H         -4.53379107    0.42515901    0.18944000
 H         -2.67946601   -0.74138802    1.03529799
 C         -2.26165104    3.01595402    0.23479700
 H         -2.44213200    2.20025110   -2.32525802
 H         -2.09610105   -0.57483399   -1.27734101
 C         -1.01813602    2.10521197    0.43185899
 H         -2.57726598    3.43137598    1.19384301
 H         -1.99567902    3.84468889   -0.42363301
 H         -0.61219299    2.17619109    1.44036102
 H         -0.23186800    2.32238102   -0.28949201
 O          2.75371599    2.10885811    0.79137599
 O          4.37506485    1.96063101    2.31812692
 C          4.99867487    2.22546196    0.01567400
 C          3.99083090    2.08795309    1.14549899
 H          6.01971579    2.24240899    0.39496201
 H          4.79723406    3.14048195   -0.54637903
 H          4.87868977    1.38495302   -0.67368400
