55
wb97x-d4 ma-def2-tzvp(-f) cpcm(dmso) E: -1285.243663848166, G: -1284.8220544800001
 C          0.01646000   -2.80015206    1.25101805
 C          0.64150000   -1.60311198    1.95743799
 O         -0.18884100   -1.20393300    3.03073907
 C          0.90310401   -0.47233799    0.97173798
 O          1.49580002    0.58591098    1.62482905
 C          1.64402604   -0.96156400   -0.27133301
 C          0.98900402   -2.22048712   -0.83883703
 C          1.83343506   -2.85190511   -1.94069803
 O          1.82057905   -2.07351089   -3.13208508
 O          0.85370201   -3.20682311    0.18444400
 O          1.66409004    0.01937600   -1.29594600
 O         -1.26320803   -2.44739008    0.81990898
 H          0.00604100   -1.96880901   -1.24927497
 H         -0.02794700   -3.66229391    1.92496204
 H         -0.16355000   -0.09187200    0.58372903
 H          2.66823506   -1.20652699    0.04106500
 C         -2.01122594   -3.54973793    0.30862901
 H          0.28443101   -0.52736503    3.53019404
 H          2.85854197   -2.99597096   -1.57604504
 H          1.41469300   -3.82984209   -2.18653488
 H          2.20133305    0.78198498   -0.96841902
 H          2.02899790    1.14744794    0.99124199
 H          1.97424197   -1.15477300   -2.86208510
 H         -3.02057290   -3.18443990    0.12122700
 H         -2.04431295   -4.36165810    1.04285705
 H         -1.57853699   -3.92140698   -0.62426102
 H          1.61858904   -1.93410397    2.33197594
 C         -2.91371489    1.28238404   -1.64303195
 C         -1.84010005    0.27607799   -1.13960397
 C         -3.26661611    2.23431993   -0.49495101
 C         -2.03533411    3.08303404   -0.15874700
 C         -0.82926798    2.13144398    0.07305200
 N         -1.36348796    0.76839399    0.15989301
 H         -3.79580903    0.73031998   -1.97191799
 H         -2.25001907   -0.72019899   -0.98340797
 H         -4.09976196    2.87824106   -0.78176802
 H         -1.79819202    3.76603293   -0.97612798
 H         -0.30421799    2.35198808    1.00197506
 H         -2.52756190    1.84560096   -2.49511504
 H         -0.98592401    0.21797100   -1.81221294
 C         -3.64016891    1.40207696    0.73630702
 H         -2.22111106    3.67759895    0.73805398
 H         -0.12170300    2.15598392   -0.75413299
 C         -2.37745094    0.63406700    1.21437705
 H         -4.43365383    0.69473702    0.48614699
 H         -3.99848294    2.04285502    1.54390895
 H         -2.56619191   -0.42590401    1.36558604
 H         -1.95955300    1.05880201    2.12612605
 O          2.91574693    2.04941201   -0.06237000
 O          4.66832495    0.67708600    0.13678500
 C          5.08173800    3.03437495   -0.01907800
 C          4.17803717    1.81283200    0.02379200
 H          6.13286209    2.74907994    0.00956400
 H          4.85433006    3.67949390    0.83347499
 H          4.87867498    3.60719204   -0.92705297
