55
wb97x-d4 ma-def2-tzvp(-f) cpcm(dmso) E: -1285.242217937835, G: -1284.82184707
 C          0.89956498   -2.61298108    0.23565800
 C          1.66717505   -1.34850204    0.61977798
 O          1.34941304   -1.02660096    1.95363402
 C          1.37272596   -0.22990400   -0.38409501
 O          2.09744310    0.92548001   -0.21762700
 C          1.53520405   -0.71772599   -1.81833506
 C          0.77997702   -2.01955295   -2.06188607
 C          1.07511199   -2.61646795   -3.43343592
 O          0.44081900   -1.89057899   -4.48033285
 O          1.19710505   -2.98548293   -1.09769595
 O          1.06319904    0.24966900   -2.75057912
 O         -0.46394101   -2.37918210    0.42654201
 H         -0.29742101   -1.84571099   -1.98288298
 H          1.23354101   -3.45722699    0.84835500
 H          0.21902800    0.04875600   -0.25144699
 H          2.60575294   -0.90425098   -1.97799504
 C         -1.26378596   -3.55323601    0.29938099
 H          1.73949802   -0.15632001    2.17950106
 H          2.16045809   -2.66384506   -3.58825302
 H          0.67789400   -3.63285995   -3.46210003
 H          1.62939203    1.02866101   -2.68575811
 H          2.18769693    1.17611897    0.75886899
 H          0.67469198   -0.95917499   -4.35959482
 H         -2.27503300   -3.27782393    0.59804899
 H         -0.88878101   -4.34417391    0.95767897
 H         -1.27429605   -3.91475892   -0.73278499
 H          2.73621202   -1.58470905    0.51806903
 C         -2.78383303    1.55125403    1.51847506
 C         -1.54251397    0.63982803    1.30438006
 C         -3.25188804    2.06840706    0.15468299
 C         -3.45946908    0.87317199   -0.77963001
 C         -2.08180094    0.20026000   -1.03626800
 N         -1.12612605    0.79769200   -0.09542100
 H         -2.52437091    2.38774896    2.17068601
 H         -0.70659101    0.92708600    1.93959403
 H         -4.18330812    2.62686801    0.26295599
 H         -4.14527321    0.15462400   -0.32609999
 H         -1.71382797    0.38772300   -2.04402804
 H         -3.57300091    0.97435701    2.00384688
 H         -1.76643598   -0.41267201    1.46205497
 C         -2.16117001    2.97190499   -0.42995599
 H         -3.88456511    1.19517803   -1.73188996
 H         -2.11235094   -0.87151498   -0.85169703
 C         -0.81527901    2.19184303   -0.42569500
 H         -2.05145001    3.87992311    0.16519700
 H         -2.41790605    3.26285791   -1.45058596
 H         -0.12773900    2.56672192    0.33119899
 H         -0.32660300    2.21209908   -1.39809501
 O          2.22783899    1.52895701    2.30236506
 O          4.45667982    1.36663496    2.21787500
 C          3.45217896    2.27224112    4.19890213
 C          3.40435004    1.67627096    2.80064702
 H          3.00093794    3.26749706    4.18367910
 H          4.47601891    2.34129190    4.56492376
 H          2.85884905    1.65412998    4.87719011
