55
wb97x-d4 ma-def2-tzvp(-f) cpcm(dmso) E: -1285.24310859476, G: -1284.82151907
 C         -2.51755905    0.57268000    1.32479501
 C         -1.46283400   -0.32536900    1.95362997
 O         -0.78921998    0.37685901    2.98095489
 C         -0.50191998   -0.85828102    0.89831698
 O          0.42211100   -1.67720103    1.50656796
 C         -1.22544897   -1.46055698   -0.31190899
 C         -2.36046100   -0.54323798   -0.77394098
 C         -3.25164294   -1.24442995   -1.78350103
 O         -4.19753599   -0.36213899   -2.38240290
 O         -3.19370103   -0.15411100    0.31952000
 O         -0.35589299   -1.63269103   -1.41613102
 O         -1.89928401    1.72465003    0.83182597
 H         -1.92159200    0.34638101   -1.23938501
 H         -3.28775501    0.83655000    2.05788302
 H          0.08635200    0.08094100    0.47027901
 H         -1.64992797   -2.42436290    0.00673000
 C         -2.82452893    2.69882298    0.35264200
 H         -0.16107100   -0.23485400    3.38449597
 H         -2.62459397   -1.71808302   -2.54314995
 H         -3.82763505   -2.01941609   -1.27195597
 H          0.30423701   -2.31969309   -1.17867506
 H          0.82497901   -2.34042692    0.85707802
 H         -3.71927404    0.22606701   -2.97868896
 H         -3.55831003    2.94384289    1.12814403
 H         -3.34548998    2.34176898   -0.54005700
 H         -2.24425602    3.58715892    0.10439600
 H         -1.99687696   -1.18991196    2.36887407
 C          3.58822489    1.18671095   -0.41577899
 C          2.39295101    0.22587401   -0.15828399
 C          3.02836204    2.57219410   -0.75913697
 C          2.34297395    3.14405394    0.48623899
 C          1.35524797    2.07852602    1.03350699
 N          1.19805205    1.06134498   -0.01377600
 H          4.18909311    0.79309100   -1.23735094
 H          2.22451496   -0.45239601   -0.99323303
 H          3.83185601    3.23306704   -1.08867300
 H          3.07516408    3.38285708    1.25943196
 H          0.37447500    2.49268508    1.25239503
 H          4.22178888    1.24488699    0.47174200
 H          2.52030706   -0.35222101    0.75644100
 C          1.97897005    2.41935110   -1.86654305
 H          1.80385804    4.05985308    0.23402999
 H          1.74116600    1.57852900    1.92063296
 C          0.76534200    1.63569200   -1.29290903
 H          2.40287399    1.87980902   -2.71624804
 H          1.64041197    3.39544296   -2.21803594
 H          0.45869800    0.81969500   -1.94457400
 H         -0.08702300    2.28270602   -1.09251297
 O          1.33753097   -5.36415577   -1.09924495
 O          1.37921298   -3.30638504   -0.24255000
 C          0.68443698   -5.08479309    1.18940401
 C          1.17333806   -4.57246685   -0.15787899
 H          0.70398200   -6.17336798    1.22597301
 H         -0.34163401   -4.73915577    1.34503603
 H          1.29495203   -4.67237997    1.99556005
