55
wb97x-d4 ma-def2-tzvp(-f) cpcm(dmso) E: -1285.246969304688, G: -1284.82685416
 C         -0.07704000   -2.87853408    1.17775297
 C          0.55841899   -1.74258006    1.96732104
 O         -0.29962900   -1.35722303    3.02523398
 C          0.90278202   -0.57798600    1.04973304
 O          1.49287200    0.41646501    1.79321694
 C          1.67804694   -1.00708699   -0.19866200
 C          1.04845595   -2.25444698   -0.82608199
 C          1.96576500   -2.84945703   -1.87132096
 O          1.24476695   -3.83904195   -2.60586095
 O          0.80998403   -3.27087402    0.15229000
 O          1.68662095    0.02446000   -1.15811598
 O         -1.31603098   -2.45458102    0.68838203
 H          0.10264800   -1.97129500   -1.29951704
 H         -0.19902501   -3.76609302    1.80854905
 H         -0.12363100   -0.15080500    0.63529599
 H          2.70161295   -1.24846900    0.12330600
 C         -2.05420589   -3.49595904    0.05115200
 H          0.14567301   -0.65376300    3.51380301
 H          2.30834603   -2.04922390   -2.53271008
 H          2.83446407   -3.29431891   -1.37158298
 H          2.52945709    0.54846501   -1.05225897
 H          1.99969399    1.09864104    1.25067699
 H          1.83887696   -4.20960379   -3.26756096
 H         -3.03756404   -3.08759308   -0.18091200
 H         -2.16210699   -4.35478687    0.72251397
 H         -1.56588995   -3.81737089   -0.87278497
 H          1.50409305   -2.13219810    2.36638689
 C         -2.77058601    1.43953800   -1.61191595
 C         -1.75644803    0.36653399   -1.12042999
 C         -3.11961603    2.35595608   -0.43344900
 C         -1.86559701    3.13923192   -0.02904700
 C         -0.70365399    2.12976003    0.18853000
 N         -1.29717600    0.79055601    0.20660800
 H         -3.66369891    0.94055003   -1.99186802
 H         -2.21478891   -0.61474401   -1.01309204
 H         -3.91869593    3.04414105   -0.71442300
 H         -1.58052599    3.84736609   -0.80890298
 H         -0.19412100    2.29009795    1.13801801
 H         -2.33307099    2.02163911   -2.42568803
 H         -0.88727897    0.29539400   -1.77182102
 C         -3.55947495    1.48918402    0.75142002
 H         -2.05129600    3.70089102    0.88880903
 H          0.02511300    2.15480804   -0.61930501
 C         -2.33905792    0.65408599    1.23047996
 H         -4.37099123    0.82294202    0.45119900
 H         -3.91626811    2.10925102    1.57565999
 H         -2.57219791   -0.40274501    1.33481705
 H         -1.92963898    1.02771294    2.16809702
 O          2.89695311    2.36334705    0.84246200
 O          3.89865088    1.40482795   -0.91070098
 C          4.80382681    3.45251489   -0.07987000
 C          3.79651403    2.31504393   -0.04274500
 H          5.71021891    3.15727305   -0.60827798
 H          5.04493618    3.78630400    0.93009698
 H          4.35051489    4.29379416   -0.61290997
