55
wb97x-d4 ma-def2-tzvp(-f) cpcm(dmso) E: -1285.242183885976, G: -1284.8214162200002
 C          0.79629302   -2.64045310    0.41553500
 C          1.58275998   -1.37685895    0.76033401
 O          1.21582198   -0.96402001    2.05508709
 C          1.37214303   -0.31163001   -0.31928799
 O          2.12409496    0.83046198   -0.17995700
 C          1.58270204   -0.88467002   -1.71432400
 C          0.79185200   -2.17274690   -1.91531205
 C          1.12060905   -2.85811996   -3.23666811
 O          0.55683899   -2.17338705   -4.34926510
 O          1.13606501   -3.09493208   -0.88209301
 O          1.18357205    0.04077100   -2.71987391
 O         -0.56728703   -2.36435890    0.53785199
 H         -0.28089201   -1.95661604   -1.88992405
 H          1.08340001   -3.45704103    1.08671606
 H          0.22147700    0.01160800   -0.26198000
 H          2.65196800   -1.11479902   -1.81539500
 C         -1.38888896   -3.52592206    0.43440500
 H          1.62103701   -0.09034900    2.24338293
 H          2.20901489   -2.95126009   -3.34119701
 H          0.68841499   -3.86045909   -3.22442508
 H          1.77010405    0.80589497   -2.67299891
 H          2.16824389    1.12841702    0.78280002
 H          0.81974900   -1.24514604   -4.27209711
 H         -2.40545106   -3.21392488    0.67288202
 H         -1.06184399   -4.28946304    1.14827800
 H         -1.36229801   -3.94007111   -0.57740599
 H          2.64763498   -1.64891899    0.72330600
 C         -2.68940210    1.80168998    1.35494995
 C         -1.47671604    0.83884400    1.22315001
 C         -3.16515493    2.18540311   -0.04942400
 C         -3.43068290    0.90550703   -0.84739000
 C         -2.08391595    0.15448999   -1.04428995
 N         -1.08855104    0.81948698   -0.19392100
 H         -2.39677501    2.69466710    1.91109395
 H         -0.61912102    1.17806399    1.80157900
 H         -4.07480001    2.78532696    0.01192300
 H         -4.13680315    0.26723999   -0.31239200
 H         -1.72900403    0.21146400   -2.07260203
 H         -3.48636198    1.30280697    1.90917301
 H         -1.71993995   -0.18221700    1.50950003
 C         -2.05582094    2.98182392   -0.74423200
 H         -3.85670900    1.14058900   -1.82430506
 H         -2.14885306   -0.88722599   -0.73836100
 C         -0.73949802    2.15444589   -0.69055402
 H         -1.89885998    3.94037795   -0.24687600
 H         -2.32673812    3.17838097   -1.78358495
 H         -0.01282100    2.58508992   -0.00340000
 H         -0.28470001    2.04338503   -1.67305303
 O          2.13692808    1.58572805    2.31403899
 O          4.30069304    1.05251002    2.49781990
 C          3.35629296    2.56153107    4.10569286
 C          3.28811598    1.66116297    2.88243890
 H          3.05355000    3.57444906    3.82919192
 H          4.36011600    2.58086705    4.52859116
 H          2.64839292    2.20210409    4.85687113
