55
wb97x-d4 ma-def2-tzvp(-f) cpcm(dmso) E: -1285.242368815032, G: -1284.82141249
 C          0.78582698   -2.30499005    1.14659703
 C          1.58525395   -1.01129401    1.00991595
 O          1.36857796   -0.21379700    2.15090799
 C          1.22440398   -0.30799201   -0.29907200
 O          1.95450497    0.82189697   -0.58422798
 C          1.28767097   -1.26374400   -1.48277795
 C          0.52335900   -2.55469203   -1.20564103
 C          0.74246800   -3.60163689   -2.29178905
 O          0.05948400   -3.27241707   -3.49613810
 O          0.99622500   -3.12818098    0.01238800
 O          0.74326199   -0.67175800   -2.65903401
 O         -0.56153899   -1.98363400    1.32170498
 H         -0.54800302   -2.34399509   -1.13505101
 H          1.15542698   -2.89015698    1.99547601
 H          0.08136900    0.02442600   -0.19982800
 H          2.34497690   -1.51410794   -1.64123404
 C         -1.37425494   -3.11076689    1.64446604
 H          1.93227994    0.58742601    2.07135201
 H          1.81817698   -3.72491193   -2.47013497
 H          0.33910000   -4.55436420   -1.94369400
 H          1.32889295    0.04432900   -2.93464398
 H          2.26149201    1.28857803    0.25119999
 H          0.28947201   -2.35657597   -3.70919800
 H         -2.36719894   -2.72539091    1.87492502
 H         -0.97144699   -3.63462210    2.51793003
 H         -1.43850505   -3.80507112    0.80210400
 H          2.64154792   -1.30259097    0.93317401
 C         -3.61232591    0.70135301   -0.84268999
 C         -2.25441909   -0.05383200   -0.89447403
 C         -3.35375595    2.13872409   -0.38105500
 C         -2.27967596    2.76121211   -1.27968895
 C         -0.94381601    1.99541903   -1.06030500
 N         -1.25232995    0.80862802   -0.25648901
 H         -4.29090691    0.19923700   -0.15001300
 H         -2.29001808   -0.99246001   -0.34503400
 H         -4.27421379    2.72251797   -0.43678001
 H         -2.57789111    2.69208097   -2.32781696
 H         -0.21582100    2.58901405   -0.50890899
 H         -4.06828403    0.68965298   -1.83411598
 H         -1.92630696   -0.24112301   -1.91559100
 C         -2.83462501    2.10626292    1.05997300
 H         -2.13440990    3.81503105   -1.03668296
 H         -0.50208998    1.66543698   -1.99874699
 C         -1.60956705    1.15159404    1.12557197
 H         -3.60758710    1.74398994    1.74003994
 H         -2.54426098    3.10917997    1.37949097
 H         -1.83387804    0.22348800    1.64647198
 H         -0.74550998    1.62247801    1.59120905
 O          2.77820611    2.05109811    1.57765198
 O          4.67468882    0.86996102    1.50759804
 C          4.74565792    3.08411288    2.42760491
 C          4.03731823    1.89889395    1.78971601
 H          5.79373503    2.86041498    2.62379503
 H          4.24376297    3.35149097    3.36046600
 H          4.67550421    3.94618511    1.75912499
