55
wb97x-d4 ma-def2-tzvp(-f) cpcm(dmso) E: -1285.240976724032, G: -1284.8214085900001
 C          0.01692600   -2.73349905    1.32361305
 C          0.59685498   -1.52854705    2.06430101
 O         -0.26475599   -1.05157900    3.08180904
 C          0.89446598   -0.39743900    1.09126794
 O          1.47188795    0.66255498    1.75050604
 C          1.66924906   -0.86749101   -0.14853799
 C          1.10408998   -2.17292094   -0.71032399
 C          2.04851103   -2.77282405   -1.72938895
 O          1.38190305   -3.84781694   -2.39112806
 O          0.92248899   -3.14374089    0.32100400
 O          1.61125803    0.09353000   -1.18716502
 O         -1.23594105   -2.38606691    0.81101501
 H          0.14415200   -1.96286297   -1.19276702
 H         -0.07108900   -3.59265900    1.99908698
 H         -0.15103900   -0.02831000    0.66706699
 H          2.70903301   -1.03555703    0.16815600
 C         -1.93172097   -3.48674011    0.22878800
 H         -0.19982800   -1.64806902    3.83642197
 H          2.33446288   -1.99589598   -2.44325900
 H          2.94766998   -3.13166595   -1.21488404
 H          2.12085700    0.88062900   -0.89970702
 H          2.01377892    1.24150097    1.12610805
 H          1.99349904   -4.22794724   -3.03113508
 H         -2.92991710   -3.12989807   -0.02404400
 H         -2.00720501   -4.31307220    0.94392198
 H         -1.42984104   -3.83716512   -0.67725003
 H          1.55486703   -1.84937596    2.49117708
 C         -2.86142707    1.34728706   -1.65434897
 C         -1.81080496    0.33501101   -1.11277699
 C         -3.23340392    2.31469607   -0.52495998
 C         -2.00375104    3.15915394   -0.17157900
 C         -0.80840802    2.20069289    0.08986800
 N         -1.35768497    0.84614497    0.18573400
 H         -3.74005008    0.80018598   -2.00032306
 H         -2.23730707   -0.65255898   -0.94765198
 H         -4.05609894    2.96055508   -0.83664101
 H         -1.74578905    3.83412194   -0.98936701
 H         -0.29427001    2.42874599    1.02318704
 H         -2.44757605    1.89780796   -2.50176501
 H         -0.94354898    0.25498101   -1.76537502
 C         -3.63799405    1.49935699    0.70824403
 H         -2.20253611    3.76173496    0.71704602
 H         -0.08969100    2.20751405   -0.72734803
 C         -2.38846803    0.73078400    1.22285402
 H         -4.42929888    0.79251599    0.45005101
 H         -4.00963211    2.15167999    1.50039697
 H         -2.58640909   -0.32631701    1.38429296
 H         -1.98628104    1.16611397    2.13653898
 O          2.81366801    2.14685392    0.07278000
 O          4.69267702    1.59298003    1.15069306
 C          4.86037493    3.00098395   -0.78318900
 C          4.08825397    2.17510200    0.23453000
 H          5.93538523    2.91892409   -0.62603801
 H          4.55873919    4.04811907   -0.69650298
 H          4.60670900    2.66974497   -1.79300404
