55
wb97x-d4 ma-def2-tzvp(-f) cpcm(dmso) E: -1285.242247008584, G: -1284.82126977
 C          0.06351500   -2.85256791    1.18995297
 C          0.65850502   -1.68256199    1.96613598
 O         -0.15857001   -1.32330406    3.06507707
 C          0.94058198   -0.50979197    1.02965701
 O          1.53628302    0.51800102    1.72092998
 C          1.68785501   -0.93548501   -0.24082799
 C          1.05384505   -2.17856503   -0.86484700
 C          1.93051195   -2.73888302   -1.96355295
 O          1.20193005   -3.75413299   -2.65333700
 O          0.89257503   -3.20942593    0.11245500
 O          1.67777205    0.08653400   -1.21800804
 O         -1.22048903   -2.45576191    0.78790700
 H          0.07798800   -1.91422296   -1.28446102
 H          0.00575500   -3.74499798    1.82224703
 H         -0.11719000   -0.10615600    0.63943398
 H          2.71737409   -1.17588401    0.06142300
 C         -2.00048089   -3.51385999    0.23014601
 H         -1.07851398   -1.39285398    2.77852988
 H          2.20358896   -1.92727900   -2.64287996
 H          2.84254003   -3.15121388   -1.51613498
 H          2.17519999    0.85467303   -0.85746998
 H          2.04296303    1.12802303    1.10555005
 H          1.76862204   -4.10627079   -3.34827590
 H         -2.99749899   -3.11079788    0.05548700
 H         -2.05855608   -4.35369015    0.93013501
 H         -1.57276595   -3.85551310   -0.71593302
 H          1.61884797   -2.00669694    2.37732100
 C         -2.79437804    1.42012095   -1.61148202
 C         -1.75783396    0.37045500   -1.11736202
 C         -3.14723206    2.34843993   -0.44381800
 C         -1.90047002    3.14794588   -0.05060600
 C         -0.73227102    2.15230894    0.19012100
 N         -1.30567300    0.80303901    0.21107700
 H         -3.68371892    0.90244102   -1.97483897
 H         -2.19507098   -0.62100202   -1.01014602
 H         -3.95295906    3.02608609   -0.73120898
 H         -1.61816597    3.84334302   -0.84276402
 H         -0.23446900    2.32545900    1.14381003
 H         -2.37475991    1.99727702   -2.43796992
 H         -0.88711900    0.31700301   -1.76812506
 C         -3.57744193    1.49521697    0.75350797
 H         -2.09345102    3.72540903    0.85578197
 H          0.00452300    2.18322492   -0.60998797
 C         -2.35546899    0.65991902    1.22735000
 H         -4.39384413    0.82822198    0.46944499
 H         -3.92285895    2.12532210    1.57483995
 H         -2.59992504   -0.39704201    1.31365502
 H         -1.95291603    1.02370000    2.17256498
 O          2.82522607    2.15124893    0.10722700
 O          4.73434210    1.04225695    0.46100301
 C          4.85426712    3.37107301   -0.10290000
 C          4.10642004    2.07770705    0.18145899
 H          4.59811783    3.72382092   -1.10504496
 H          5.93217707    3.23135805   -0.02791800
 H          4.53277016    4.13834476    0.60567403
