55
wb97x-d4 ma-def2-tzvp(-f) cpcm(dmso) E: -1285.242145549578, G: -1284.8209983400002
 C         -2.80870199    0.93178302    0.89667898
 C         -1.72709405    0.32679901    1.79158294
 O         -1.11089897    1.33028805    2.57631302
 C         -0.71515203   -0.51136702    1.00303102
 O          0.14620100   -1.12585199    1.87713301
 C         -1.40849602   -1.43303800   -0.00986300
 C         -2.41805506   -0.63797301   -0.83393699
 C         -3.20568609   -1.51989603   -1.79654205
 O         -2.41501498   -1.93675900   -2.90321708
 O         -3.37207890   -0.03257300    0.03858500
 O         -0.51114798   -2.04726696   -0.91414100
 O         -2.21098304    1.98953402    0.20169100
 H         -1.89165795    0.13089900   -1.41093004
 H         -3.64112091    1.29871595    1.50641298
 H         -0.04231400    0.25045401    0.33979401
 H         -1.95620799   -2.19191599    0.56888300
 C         -3.13752794    2.81869793   -0.49834901
 H         -0.99171102    2.10109997    2.00402308
 H         -3.61090207   -2.38367295   -1.25398600
 H         -4.04122114   -0.93998498   -2.19357991
 H          0.08832800   -2.65670490   -0.41187400
 H          0.57139498   -1.94190502    1.47550094
 H         -1.59275603   -2.28694201   -2.52642202
 H         -3.89329290    3.21072102    0.19028600
 H         -3.62751198    2.26247096   -1.30158198
 H         -2.56354308    3.64207292   -0.92209798
 H         -2.21913910   -0.36167401    2.48495507
 C          3.32104707    1.92611396    0.39719799
 C          1.95995498    1.39133096    0.91721803
 C          3.21467209    2.12646890   -1.11881495
 C          1.96756601    2.96401000   -1.42101097
 C          0.70790797    2.13930392   -1.03738296
 N          1.16739202    0.98460197   -0.25118300
 H          4.11784887    1.21595895    0.62807900
 H          2.07554293    0.52405202    1.56637096
 H          4.10721684    2.62762809   -1.49712205
 H          1.99087405    3.89443994   -0.84947002
 H          0.18420599    1.75278699   -1.91123199
 H          3.54973412    2.86755490    0.89981502
 H          1.39856601    2.16095090    1.44484901
 C          3.05355096    0.75497502   -1.77962101
 H          1.92022502    3.21850705   -2.48131990
 H          0.01217400    2.71183991   -0.42939699
 C          1.88561702    0.00572100   -1.08389795
 H          3.96744204    0.16651000   -1.68104303
 H          2.83864689    0.87147099   -2.84407711
 H          2.23951507   -0.78793699   -0.42642099
 H          1.18078804   -0.41438401   -1.79633105
 O          0.59164101   -5.44345522    0.60963303
 O          1.09161699   -3.27359200    0.75377399
 C          1.16169000   -4.55042791    2.76134992
 C          0.91951501   -4.44153023    1.26363206
 H          0.51585299   -3.84331703    3.28817797
 H          2.19628310   -4.27455902    2.98019195
 H          0.96921098   -5.56103802    3.11968708
