55
wb97x-d4 ma-def2-tzvp(-f) cpcm(dmso) E: -1285.24380115359, G: -1284.82063681
 C          0.20668299   -2.92413592    0.72233897
 C          0.59004301   -1.86117399    1.74604201
 O         -0.36530501   -1.79396200    2.78850293
 C          0.82783902   -0.50773603    1.07516801
 O          1.23679399    0.41198999    2.01063609
 C          1.72737896   -0.63582301   -0.15863600
 C          1.26381099   -1.77489102   -1.06668794
 C          2.26033211   -2.05168509   -2.18819094
 O          2.25978208   -1.02157903   -3.16911507
 O          1.15003896   -2.98773098   -0.32232699
 O          1.73390496    0.54688501   -0.94269502
 O         -1.08193803   -2.60004401    0.27512300
 H          0.29747701   -1.51679802   -1.51078296
 H          0.21350300   -3.91851997    1.18049800
 H         -0.22233801   -0.13238899    0.64762998
 H          2.74161696   -0.86572802    0.19955900
 C         -1.70194197   -3.63074708   -0.49463299
 H         -1.23726404   -1.91022599    2.38839507
 H          3.26156402   -2.18626595   -1.75905001
 H          1.97339201   -2.97876000   -2.68860412
 H          2.22358990    1.24282801   -0.43483299
 H          1.80939603    1.13134599    1.60718203
 H          2.27640009   -0.18275601   -2.68186307
 H         -1.16955495   -3.78563809   -1.43661404
 H         -2.71951389   -3.30002093   -0.69979298
 H         -1.72447395   -4.56694412    0.07240400
 H          1.53851104   -2.16028500    2.20163488
 C         -3.75909090    1.26389503    0.82762700
 C         -2.53936410    0.35611701    1.15595198
 C         -3.37963605    2.19737196   -0.32541999
 C         -2.98280907    1.35304499   -1.54090595
 C         -1.76974797    0.45456001   -1.15726304
 N         -1.45045197    0.73300302    0.24743900
 H         -4.03351307    1.84294605    1.71118498
 H         -2.18685603    0.49890301    2.17694712
 H         -4.22466707    2.84025598   -0.57866198
 H         -3.81810689    0.72459400   -1.85522497
 H         -0.88626599    0.68343800   -1.75036502
 H         -4.61190414    0.64187700    0.55026299
 H         -2.76163411   -0.69657898    0.98919898
 C         -2.18330598    3.05201507    0.10302500
 H         -2.70877194    1.99775696   -2.37785411
 H         -2.00102401   -0.60572499   -1.24326503
 C         -0.99580902    2.11087394    0.45649001
 H         -2.44166088    3.65965295    0.97199798
 H         -1.88666499    3.72346210   -0.70477802
 H         -0.69002402    2.20731211    1.49750602
 H         -0.13549000    2.27730298   -0.18870200
 O          2.79278708    2.14487791    0.83639097
 O          4.41476011    1.93232298    2.35473108
 C          5.03579712    2.11920691    0.04438700
 C          4.02955103    2.06114292    1.18254995
 H          4.87182283    3.02338290   -0.54640102
 H          4.87341022    1.26250994   -0.61607301
 H          6.05894613    2.10126209    0.41793600
