55
wb97x-d4 ma-def2-tzvp(-f) cpcm(dmso) E: -1285.242349358288, G: -1284.8204223300002
 C         -3.21289301    1.13316798    0.51120001
 C         -1.72314405    1.47295904    0.54619098
 O         -1.39846694    2.42226195   -0.46336600
 C         -0.92233098    0.20674001    0.27428401
 O         -0.91744101   -0.58436602    1.39691496
 C         -1.37828600   -0.50335503   -1.00973904
 C         -2.90134096   -0.69756800   -1.00564098
 C         -3.40424395   -1.83037496   -0.10227400
 O         -3.04278207   -3.09636402   -0.62692302
 O         -3.56575990    0.54066098   -0.72893399
 O         -0.96197098    0.22735199   -2.15752506
 O         -3.91264105    2.32841396    0.62957102
 H         -3.19106698   -0.94687998   -2.02895689
 H         -3.45959806    0.45828199    1.34113395
 H          0.17324600    0.56040102    0.04349500
 H         -0.89607000   -1.48073900   -1.06755602
 C         -5.31209612    2.15553093    0.86487299
 H         -2.07361293    3.11366296   -0.44256800
 H         -3.04474998   -1.72020900    0.92361897
 H         -4.49622202   -1.77395797   -0.08870700
 H         -1.21264303    1.15245903   -2.01152706
 H         -0.37266600   -1.42320704    1.21715403
 H         -2.11228800   -3.30080009   -0.38140100
 H         -5.47197199    1.52301502    1.74436402
 H         -5.80249500    1.70853400   -0.00271100
 H         -5.72318506    3.14744496    1.04806495
 H         -1.47058201    1.85521495    1.54046202
 C          3.44439697    2.50172400   -0.39607900
 C          1.92082202    2.20096803   -0.50598502
 C          4.17870998    1.19735503   -0.06713300
 C          3.79129410    0.13660100   -1.10373700
 C          2.27387094   -0.17433199   -0.94966298
 N          1.72780097    0.82822001   -0.03042400
 H          3.62089801    3.24229908    0.38659900
 H          1.32308400    2.86593699    0.11482900
 H          5.25771713    1.36114895   -0.08323200
 H          3.99555302    0.50187403   -2.11215901
 H          2.09597898   -1.15342796   -0.50762898
 H          3.79709291    2.91541600   -1.34234297
 H          1.56382895    2.24963093   -1.53369200
 C          3.74004602    0.71876401    1.32053399
 H          4.36231804   -0.78092998   -0.95161599
 H          1.73790300   -0.09531600   -1.89410400
 C          2.18530989    0.63530499    1.34633100
 H          4.07459307    1.41273403    2.09333611
 H          4.16705608   -0.26296401    1.53515303
 H          1.74206603    1.42117000    1.95734894
 H          1.83565402   -0.33723399    1.68903196
 O          0.71081400   -2.51511502    1.01826799
 O         -0.52188402   -3.93358207   -0.19899800
 C          1.81584895   -4.37136412    0.03854300
 C          0.56158698   -3.55437994    0.30715200
 H          2.45400810   -3.80755711   -0.64853799
 H          1.57515597   -5.33483505   -0.40957001
 H          2.37577295   -4.51639509    0.96428299
