55
wb97x-d4 ma-def2-tzvp(-f) cpcm(dmso) E: -1285.242171693532, G: -1284.82027941
 C          0.85827702   -2.62231898    0.34054899
 C          1.63854897   -1.35543096    0.68965203
 O          1.29927099   -0.97690701    2.00300503
 C          1.38414896   -0.27208400   -0.36271799
 O          2.12705708    0.87603700   -0.22811399
 C          1.56260896   -0.81819803   -1.77351606
 C          0.78678000   -2.11443710   -1.97929597
 C          1.09155595   -2.76890612   -3.32193804
 O          0.48586401   -2.07299209   -4.40540886
 O          1.17117298   -3.05011892   -0.97266501
 O          1.12337506    0.12035200   -2.74999595
 O         -0.50473100   -2.36305189    0.50005502
 H         -0.28816900   -1.91703999   -1.92331100
 H          1.17009103   -3.44706511    0.99038899
 H          0.23347899    0.03249800   -0.26409799
 H          2.63204098   -1.02996194   -1.90754795
 C         -1.31744206   -3.53122211    0.40305701
 H          1.69049895   -0.10053500    2.20144296
 H          2.17810011   -2.84087110   -3.45773411
 H          0.67689502   -3.77869797   -3.31770301
 H          1.69799900    0.89431399   -2.70031905
 H          2.19344807    1.17022204    0.73848403
 H          0.73576301   -1.14208400   -4.31762409
 H         -0.96703899   -4.29914618    1.10098898
 H         -1.31062603   -3.93440509   -0.61353099
 H         -2.33105397   -3.23134804    0.66821700
 H          2.70536208   -1.61252499    0.61957902
 C         -2.71823096    1.70457494    1.42682302
 C         -1.49298298    0.76248300    1.26004100
 C         -3.19746709    2.13493395    0.03710300
 C         -3.43763995    0.88214803   -0.81007999
 C         -2.07497811    0.16968800   -1.03796101
 N         -1.09625101    0.81413299   -0.15344501
 H         -2.43802190    2.57948303    2.01712203
 H         -0.64347899    1.08310902    1.86040902
 H         -4.11801815    2.71545506    0.11901800
 H         -4.12832499    0.20829700   -0.29904100
 H         -1.71880901    0.28186199   -2.06114006
 H         -3.50893688    1.17427695    1.96042895
 H         -1.72747302   -0.27319199    1.49611700
 C         -2.10077691    2.97728705   -0.62281400
 H         -3.87083292    1.14535999   -1.77661705
 H         -2.11971688   -0.88628900   -0.78068399
 C         -0.76805800    2.17558193   -0.58647603
 H         -1.96648204    3.92164707   -0.09279700
 H         -2.36909294    3.20274806   -1.65695405
 H         -0.06011700    2.59066200    0.12935200
 H         -0.29793599    2.11812711   -1.56648505
 O          2.18272305    1.58449900    2.26499391
 O          4.41543007    1.45786500    2.27169609
 C          3.31685090    2.36399508    4.20193005
 C          3.33576107    1.75584900    2.80829501
 H          2.82566190    3.33949590    4.16588020
 H          4.32515907    2.47601104    4.59907913
 H          2.72877192    1.72583997    4.86630583
