55
wb97x-d4 ma-def2-tzvp(-f) cpcm(dmso) E: -1285.242194458965, G: -1284.8201782200001
 C          0.86914200   -2.60885501    0.29417300
 C          1.63654399   -1.34369195    0.67628598
 O          1.28890395   -0.99820602    1.99667704
 C          1.37398803   -0.23817401   -0.35060501
 O          2.10402012    0.91409701   -0.18539600
 C          1.56276202   -0.74843901   -1.77374399
 C          0.80093598   -2.04717708   -2.01316500
 C          1.11604404   -2.66631603   -3.37021708
 O          0.50587898   -1.95097697   -4.43850279
 O          1.19154501   -3.00244498   -1.02732694
 O          1.11807203    0.20891801   -2.72951603
 O         -0.49665001   -2.36449909    0.45338300
 H         -0.27604800   -1.86283004   -1.95659900
 H          1.18507802   -3.44609308    0.92575198
 H          0.22060300    0.05049800   -0.24797601
 H          2.63471007   -0.94635499   -1.90845001
 C         -1.30023706   -3.53587103    0.32512599
 H          1.69612598   -0.13608900    2.22368407
 H          2.20356894   -2.72400689   -3.50491691
 H          0.71158999   -3.68003988   -3.39125204
 H          1.68704796    0.98562503   -2.66178894
 H          2.18817210    1.17196000    0.78988397
 H          0.74545002   -1.01982296   -4.32750416
 H         -2.31569600   -3.25141692    0.60010898
 H         -0.94264603   -4.32029009    1.00068295
 H         -1.29212403   -3.91041493   -0.70239800
 H          2.70593190   -1.58898795    0.60430002
 C         -2.13772607    2.98737097   -0.51506299
 C         -0.79797000    2.19696903   -0.47982201
 C         -3.24725509    2.09645391    0.05322600
 C         -2.81461811    1.59141600    1.43305004
 C         -1.56958699    0.67608202    1.25922799
 N         -1.12468100    0.81046999   -0.13412400
 H         -2.37163210    3.27397609   -1.54236698
 H         -0.29536599    2.19922495   -1.44532800
 H         -4.17731190    2.66184211    0.13379601
 H         -2.57025909    2.43364811    2.08365703
 H         -1.79664803   -0.37368700    1.42996800
 H         -2.03304601    3.89820004    0.07669500
 H         -0.11819700    2.57759690    0.28126800
 C         -3.44110298    0.89256603   -0.87283301
 H         -3.61707306    1.02060699    1.90357804
 H         -0.74628198    0.97384298    1.90596902
 C         -2.06384706    0.20366700   -1.08533502
 H         -3.83790708    1.20766902   -1.83949006
 H         -4.14547920    0.18555699   -0.42982200
 H         -1.67148399    0.36868200   -2.08771205
 H         -2.10832810   -0.86407298   -0.88134301
 O          2.22186303    1.53710604    2.33050799
 O          4.45120716    1.37274599    2.26269007
 C          3.43121004    2.25654793    4.24560213
 C          3.39440107    1.67750096    2.83984709
 H          2.95398092    3.23955488    4.24671221
 H          4.45394611    2.34551191    4.61043882
 H          2.85648203    1.61284900    4.91630220
