55
wb97x-d4 ma-def2-tzvp(-f) cpcm(dmso) E: -1285.242509145909, G: -1284.82015456
 C         -3.21044493    0.99418902    0.83166200
 C         -1.72296906    1.33191299    0.92913800
 O         -1.42162597    2.50418210    0.18065301
 C         -0.92037302    0.17733499    0.34490100
 O         -0.89927399   -0.86134100    1.24372196
 C         -1.39011300   -0.19771101   -1.06854498
 C         -2.91175294   -0.39726701   -1.09824800
 C         -3.39382911   -1.72755396   -0.50778002
 O         -3.04306102   -2.80891490   -1.35423005
 O         -3.57990694    0.72464001   -0.51065898
 O         -0.98849100    0.79734999   -2.00334001
 O         -3.91599488    2.11578393    1.25271201
 H         -3.21319389   -0.38266200   -2.14808297
 H         -3.43808007    0.13154000    1.47173297
 H          0.16814899    0.58033901    0.19106500
 H         -0.90459198   -1.12724698   -1.37135100
 C         -5.31120586    1.87604797    1.45164597
 H         -2.10468888    3.15881491    0.37857401
 H         -3.00965095   -1.88567102    0.50286502
 H         -4.48521900   -1.68473804   -0.45503199
 H         -1.24988997    1.65528297   -1.63492501
 H         -0.38166299   -1.64517999    0.85599202
 H         -2.10388494   -3.05849695   -1.19809699
 H         -5.45593500    1.05313504    2.15945697
 H         -5.80604887    1.63896203    0.50720602
 H         -5.73006487    2.79244494    1.86534405
 H         -1.45832705    1.46095002    1.98358095
 C          3.77540994    0.08670400   -0.94106901
 C          2.22144103    0.05852000   -1.01911104
 C          4.19111776    1.10307097    0.12833400
 C          3.72474909    0.59908700    1.49843395
 C          2.20603800    0.26894701    1.40807903
 N          1.73103499    0.81546301    0.13611500
 H          4.17717505    0.36392400   -1.91708398
 H          1.84298897    0.54250997   -1.91757095
 H          5.27499819    1.23080599    0.12387600
 H          4.26878977   -0.30145699    1.78813803
 H          1.63723803    0.73227000    2.21426392
 H          4.15269709   -0.90602899   -0.68624800
 H          1.82724905   -0.95421100   -0.95290399
 C          3.50179911    2.44086194   -0.16348600
 H          3.89608407    1.36172700    2.26070595
 H          2.01834607   -0.80336398    1.39733195
 C          1.96581495    2.25531292    0.01027000
 H          3.72324300    2.76629806   -1.18191195
 H          3.84891295    3.21326494    0.52478802
 H          1.40667295    2.61978412   -0.84981197
 H          1.59225202    2.73479700    0.91408300
 O          0.65999502   -2.71474910    0.41104200
 O         -0.50192201   -3.69190502   -1.23547399
 C          1.80902302   -4.25114489   -0.98134702
 C          0.54954600   -3.49945092   -0.57900000
 H          2.61593008   -3.53583288   -1.15928102
 H          1.64560294   -4.85355902   -1.87423503
 H          2.11991501   -4.89777184   -0.15688901
