55
wb97x-d4 ma-def2-tzvp(-f) cpcm(dmso) E: -1285.242502316804, G: -1284.81999276
 C         -3.22893810    1.11935997    0.56667900
 C         -1.74200702    1.47004604    0.61712599
 O         -1.42340803    2.46085405   -0.35395500
 C         -0.92923701    0.22253300    0.29860401
 O         -0.91837800   -0.60651100    1.39461398
 C         -1.37854004   -0.44297999   -1.01106501
 C         -2.89894700   -0.65166801   -1.01704204
 C         -3.38763809   -1.82506800   -0.15884200
 O         -3.01008201   -3.06512904   -0.73231500
 O         -3.57599807    0.56845999   -0.69395298
 O         -0.96688700    0.33524501   -2.12901592
 O         -3.93770504    2.30463099    0.72616601
 H         -3.18569303   -0.86395299   -2.04948211
 H         -3.47181010    0.41389400    1.37197006
 H          0.15845799    0.59400398    0.07822700
 H         -0.88704801   -1.41298902   -1.10564101
 C         -5.33726788    2.11508489    0.94684201
 H         -2.10531998    3.14447808   -0.30809599
 H         -3.02952909   -1.74972904    0.87073898
 H         -4.48021221   -1.78438199   -0.14397000
 H         -1.22628796    1.25180399   -1.94844198
 H         -0.38148901   -1.44251204    1.19592798
 H         -2.06828403   -3.25557804   -0.51977700
 H         -5.75446987    3.09666610    1.16807199
 H         -5.49836111    1.44646800    1.79897797
 H         -5.82104015    1.70153105    0.05917300
 H         -1.49469900    1.81596303    1.62592995
 C          3.47990799    2.35480809   -0.69494098
 C          1.94550002    2.20861292   -0.47713000
 C          4.17919493    1.14022303   -0.07352100
 C          3.78373790   -0.11572200   -0.85877901
 C          2.23232388   -0.16457000   -0.95828700
 N          1.72138798    0.83583301   -0.01727200
 H          3.82002997    3.27980304   -0.22651701
 H          1.57199097    2.88381505    0.29137599
 H          5.26174021    1.27598703   -0.09915400
 H          4.20484495   -0.09510200   -1.86525202
 H          1.83557999   -1.13663495   -0.67032999
 H          3.69931102    2.41232300   -1.76301801
 H          1.38300800    2.35938692   -1.39689803
 C          3.69983101    0.98563701    1.37433302
 H          4.15272903   -1.01039600   -0.35282001
 H          1.87247002    0.10094300   -1.95054698
 C          2.18886709    0.61206102    1.35187995
 H          3.84476209    1.91822398    1.92331696
 H          4.25409603    0.19762900    1.88660002
 H          1.60207105    1.24007201    2.02204204
 H          2.01985312   -0.43652299    1.59192204
 O          0.67764199   -2.57745790    1.02694702
 O         -0.45266700   -3.85390711   -0.42460299
 C          1.86064696   -4.32835722   -0.05078600
 C          0.58701801   -3.53615689    0.20227000
 H          2.33725405   -4.58491611    0.89724302
 H          2.55654407   -3.69464111   -0.60890299
 H          1.66115201   -5.23150110   -0.62662297
