55
wb97x-d4 ma-def2-tzvp(-f) cpcm(dmso) E: -1285.241695297356, G: -1284.8196859000002
 C         -3.17236590    1.08761704    0.23197600
 C         -1.70429897    1.51092601    0.21024200
 O         -1.40947998    2.25963306   -0.96388298
 C         -0.82934999    0.26326001    0.20883501
 O         -0.79660499   -0.26364601    1.47985196
 C         -1.22622299   -0.71408898   -0.90702099
 C         -2.73386002   -0.99218899   -0.89005297
 C         -3.20115805   -1.96209097    0.20309100
 O         -2.63574100   -3.25091100    0.01393100
 O         -3.47433496    0.23415700   -0.86199600
 O         -0.82016999   -0.19744900   -2.17048812
 O         -3.93453789    2.24259591    0.09682900
 H         -2.97918606   -1.44439006   -1.85391700
 H         -3.39965200    0.58672798    1.18167806
 H          0.23295200    0.62359798   -0.09150000
 H         -0.69088799   -1.65424895   -0.77173001
 C         -5.33137989    2.04230189    0.32473800
 H         -2.12567711    2.89575005   -1.09259605
 H         -2.96869802   -1.58777905    1.20298004
 H         -4.28799915   -2.04862499    0.11987500
 H         -1.12943995    0.72049397   -2.21598697
 H         -0.53802902   -1.24209797    1.47003198
 H         -1.78562403   -3.26499891    0.50543600
 H         -5.79620695    3.02704597    0.29870799
 H         -5.49243307    1.58531296    1.30683899
 H         -5.76742601    1.40896595   -0.45085701
 H         -1.49494302    2.09730196    1.11097801
 C          3.66418099    1.82655501    1.01619995
 C          2.17574406    1.37426603    1.09965301
 C          4.21502399    1.42633998   -0.35780600
 C          3.47241402    2.21870089   -1.43926406
 C          1.94127095    2.01177812   -1.24223006
 N          1.79207301    0.95102900   -0.24554101
 H          4.22956896    1.34699094    1.81662798
 H          2.04061103    0.52508497    1.76810396
 H          5.28509617    1.63522398   -0.40789399
 H          3.70159888    3.28300405   -1.36661696
 H          1.44777703    1.69345403   -2.15877700
 H          3.73041391    2.90786791    1.15037000
 H          1.51669097    2.18723512    1.40410101
 C          3.96002102   -0.06960700   -0.57627302
 H          3.76788306    1.87229896   -2.43152308
 H          1.45135605    2.90390611   -0.85623503
 C          2.42082405   -0.30709100   -0.64700300
 H          4.38582277   -0.65096700    0.24412000
 H          4.41653585   -0.40890500   -1.50748098
 H          2.10077000   -1.08915401    0.04178800
 H          2.08649802   -0.53849602   -1.65726900
 O         -0.38707301   -2.80610204    1.45002103
 O          1.82224298   -2.69260001    1.73973203
 C          0.86543900   -4.79099321    1.07840204
 C          0.78662097   -3.32045007    1.45693600
 H          1.88140202   -5.17081213    1.18066704
 H          0.53456700   -4.91032410    0.04303400
 H          0.18739000   -5.37140417    1.70816302
