55
wb97x-d4 ma-def2-tzvp(-f) cpcm(dmso) E: -1285.24069917169, G: -1284.8196278
 C         -3.24308300    1.26432800    0.17822599
 C         -1.76669395    1.66208994    0.11422100
 O         -1.46256697    2.41966510   -1.04178405
 C         -0.94505101    0.37454000    0.18993500
 O         -0.97309899   -0.12357600    1.46996105
 C         -1.35439396   -0.63621098   -0.88635200
 C         -2.87380600   -0.84674799   -0.89469898
 C         -3.37588692   -1.78004706    0.21519500
 O         -2.97229695   -3.11648011   -0.03047900
 O         -3.56356692    0.40480301   -0.91158098
 O         -0.90665698   -0.08464900   -2.12880301
 O         -4.03338623    2.39939094    0.08067700
 H         -3.13284206   -1.32186198   -1.84571004
 H         -3.43695092    0.74746001    1.12773001
 H          0.14889400    0.67286599   -0.09080800
 H         -0.85667598   -1.59129596   -0.69500703
 C         -5.40436697    2.15997696    0.40324500
 H         -1.43929899    1.80586898   -1.79193103
 H         -3.04136992   -1.45085204    1.20167696
 H         -4.46867609   -1.74993896    0.19701000
 H         -1.19550800   -0.66328198   -2.84474206
 H         -0.43228400   -0.98071498    1.52607203
 H         -2.04822302   -3.24272299    0.28344300
 H         -5.90769577    3.12561893    0.36930400
 H         -5.49185419    1.73610198    1.40976703
 H         -5.86549711    1.48186696   -0.31903800
 H         -1.53355205    2.28138304    0.98281902
 C          3.67492795    1.33337200    1.13157499
 C          2.16370511    0.96295702    1.17563105
 C          4.17474222    1.14795995   -0.30598101
 C          3.49097991    2.18650389   -1.20211804
 C          1.95436394    2.10285902   -0.97140801
 N          1.71587706    0.87140203   -0.21522100
 H          4.21970177    0.68630499    1.82079899
 H          1.98988998   -0.00499200    1.64302897
 H          5.25831413    1.27071702   -0.34684601
 H          3.83314300    3.19410110   -0.96034998
 H          1.40065706    2.04618692   -1.90696001
 H          3.81486797    2.36811090    1.45101094
 H          1.56969798    1.72597003    1.67851901
 C          3.78186893   -0.25547099   -0.78193599
 H          3.72011805    1.99062800   -2.25149107
 H          1.57968402    2.93645501   -0.37926200
 C          2.23137903   -0.31915200   -0.89692003
 H          4.13335991   -1.00712299   -0.07199000
 H          4.21992016   -0.47506601   -1.75696003
 H          1.82131302   -1.19973898   -0.40450901
 H          1.89080095   -0.28386500   -1.93007398
 O          0.62683898   -2.10159302    1.71299803
 O         -0.44286299   -3.76325202    0.65920198
 C          1.81355405   -4.12342119    1.36543202
 C          0.56138903   -3.27110791    1.22819495
 H          1.72785902   -5.05143690    0.80115098
 H          1.96762204   -4.35819483    2.42214394
 H          2.68268108   -3.55669999    1.02399194
