55
wb97x-d4 ma-def2-tzvp(-f) cpcm(dmso) E: -1285.246825067965, G: -1284.82640826
 C         -2.48385000   -0.34852701    1.16834104
 C         -1.58058906   -1.45925605    0.63806099
 O         -0.68410403   -1.85921204    1.63960898
 C         -0.88674498   -0.99790198   -0.64657003
 O         -0.13891600   -1.95178199   -1.28993404
 C         -1.86283004   -0.38789299   -1.64555895
 C         -2.77144003    0.64116901   -0.97899699
 C         -3.87241602    1.09270501   -1.91158402
 O         -4.55969191    2.18698192   -1.30584502
 O         -3.39556789    0.05854000    0.16689000
 O         -1.16790199    0.24870200   -2.70909500
 O         -1.68245196    0.70671898    1.61563504
 H         -2.17960596    1.51148498   -0.67803901
 H         -3.10717297   -0.72680098    1.98602700
 H         -0.13850200   -0.12157900   -0.31859100
 H         -2.48437595   -1.20790303   -2.03266597
 C         -2.41523695    1.72338200    2.29643512
 H         -0.35454300   -2.77531505    1.44075203
 H         -3.42616391    1.39509296   -2.86316991
 H         -4.55636787    0.25455201   -2.09027410
 H         -0.57681298   -0.40733501   -3.09972405
 H          0.54241800   -2.40987611   -0.69284999
 H         -5.25503492    2.47155595   -1.90918005
 H         -3.08785200    2.25083995    1.61449802
 H         -1.68245006    2.42328811    2.69773197
 H         -2.99726295    1.29085004    3.11746502
 H         -2.24424005   -2.28724599    0.35141101
 C          3.37712502    1.12865400   -0.89416099
 C          2.04986310    0.36280200   -1.15578306
 C          3.11054897    2.22882199    0.13778800
 C          2.74702406    1.57407796    1.47398305
 C          1.59637201    0.55869299    1.22996998
 N          1.09209704    0.79189998   -0.13085701
 H          3.73327589    1.55649602   -1.83288705
 H          1.62407804    0.60333502   -2.12869501
 H          3.99505806    2.85764790    0.25376600
 H          3.60638690    1.04867804    1.89441597
 H          0.76823902    0.69203401    1.92142999
 H          4.13938284    0.43957400   -0.52473003
 H          2.17958593   -0.71518701   -1.07457805
 C          1.92118800    3.07136011   -0.33410999
 H          2.42921901    2.33328795    2.19182110
 H          1.94098198   -0.47311500    1.27761996
 C          0.64918298    2.17799902   -0.33396900
 H          2.10624409    3.45575309   -1.33930898
 H          1.76296401    3.92178893    0.33136299
 H          0.11652600    2.22696400   -1.28226101
 H         -0.03055200    2.42816305    0.47837901
 O          1.75570202   -3.20402789   -0.09476400
 O          0.33258799   -4.27553797    1.25090599
 C          2.46603799   -5.27459288    0.84674001
 C          1.44210994   -4.16831684    0.66367698
 H          2.29601908   -5.81611300    1.77725804
 H          3.47841597   -4.86952209    0.82231098
 H          2.36404896   -5.97685289    0.01389700
