55
wb97x-d4 ma-def2-tzvp(-f) cpcm(dmso) E: -1285.241146842936, G: -1284.8195042700002
 C         -2.82060790    0.46739599    0.63280302
 C         -1.66473901   -0.51674002    0.76029301
 O         -0.84469497   -0.11478600    1.82754004
 C         -0.89681900   -0.63270003   -0.57137102
 O         -0.35854301   -1.88054097   -0.80623400
 C         -1.69304001   -0.16657400   -1.79947996
 C         -3.18488312   -0.43746099   -1.61485696
 C         -3.52169490   -1.92232895   -1.67931199
 O         -4.92379618   -2.13282299   -1.54349303
 O         -3.72128892    0.10075200   -0.38590100
 O         -1.44288504    1.19606197   -2.11702490
 O         -2.28870511    1.75940299    0.42267400
 H         -3.72199893    0.07447500   -2.41791701
 H         -3.40808606    0.47063601    1.55585599
 H         -0.01649600    0.13092101   -0.46353099
 H         -1.34787595   -0.74836898   -2.65611506
 C         -3.25805807    2.79929495    0.57718301
 H         -0.37906101   -0.90881699    2.21550107
 H         -3.23483491   -2.31277895   -2.65794396
 H         -2.97641993   -2.48089504   -0.91213298
 H         -1.68967402    1.71332097   -1.33071101
 H         -0.04488900   -2.32587099    0.03951100
 H         -5.18662405   -1.74258804   -0.70026302
 H         -3.71859503    2.73902011    1.56832004
 H         -4.03161192    2.73114896   -0.19189499
 H         -2.72400904    3.74355102    0.47762200
 H         -2.11657000   -1.49574101    0.96270198
 C          2.73789406    2.68917990    0.30919501
 C          1.29094899    2.14878297    0.10724300
 C          3.71904397    1.72938204   -0.37457800
 C          3.26402593    1.50659895   -1.82113504
 C          1.90363097    0.74949598   -1.79618800
 N          1.42969704    0.78664702   -0.41115299
 H          2.96120691    2.76120090    1.37558806
 H          0.73218799    2.10368800    1.04016399
 H          4.72708988    2.14728594   -0.35769299
 H          3.14701891    2.46354508   -2.33379102
 H          2.01156092   -0.29672000   -2.08170295
 H          2.80896306    3.68882489   -0.12245000
 H          0.73311198    2.73069191   -0.62514299
 C          3.69125390    0.38322300    0.35757899
 H          3.99459410    0.91202003   -2.37192297
 H          1.15333402    1.22454298   -2.42562795
 C          2.20972991   -0.07726000    0.47631201
 H          4.11499310    0.47311199    1.35915196
 H          4.27263117   -0.35845700   -0.19371299
 H          1.81880903    0.04359100    1.48362100
 H          2.07534790   -1.11053896    0.15713100
 O          0.61620897   -3.28691912    1.13668394
 O          0.48015800   -2.04464006    2.99266911
 C          1.90596497   -3.95205998    3.02637792
 C          0.91617900   -3.02778006    2.33558202
 H          2.91321993   -3.56484294    2.84407091
 H          1.85003495   -4.96163321    2.61844492
 H          1.73765600   -3.96792006    4.10346079
