55
wb97x-d4 ma-def2-tzvp(-f) cpcm(dmso) E: -1285.240857805111, G: -1284.8189200400002
 C         -3.19500804    1.01175201    0.92710799
 C         -1.71034002    1.36932695    1.02254701
 O         -1.41930699    2.61361289    0.41564000
 C         -0.92406601    0.22133100    0.38803101
 O         -0.92459702   -0.86701101    1.22621500
 C         -1.39399600   -0.08079400   -1.03823495
 C         -2.91985512   -0.23674600   -1.09769702
 C         -3.42631507   -1.60151100   -0.61158401
 O         -3.09535193   -2.61878204   -1.54130602
 O         -3.57022691    0.85095400   -0.43733799
 O         -0.96329302    1.03181195   -1.82896495
 O         -3.95064306    2.04110193    1.46635199
 H         -3.21809292   -0.14703900   -2.14648795
 H         -3.37853098    0.07817300    1.47570896
 H          0.17168200    0.61382598    0.25829801
 H         -0.92155302   -1.00250196   -1.38965595
 C         -5.31569195    1.68248904    1.68640602
 H         -1.43153799    2.47708988   -0.54418403
 H         -3.04169393   -1.84483302    0.38150999
 H         -4.51629782   -1.54167104   -0.55061603
 H         -1.26526594    0.90415901   -2.73640108
 H         -0.42341301   -1.63803899    0.79851300
 H         -2.16906595   -2.91227794   -1.38417399
 H         -5.78061581    2.51981997    2.20566297
 H         -5.37924910    0.78367102    2.30966592
 H         -5.83365107    1.50676501    0.74026603
 H         -1.43653202    1.44583201    2.07687998
 C          3.78273010    0.11243300   -0.86342502
 C          2.22933292    0.10534700   -0.95773500
 C          4.19915390    1.09971094    0.23261601
 C          3.71743989    0.56695998    1.58672905
 C          2.19867802    0.24502200    1.47401094
 N          1.73669100    0.83263999    0.21565600
 H          4.19725609    0.40634799   -1.82914698
 H          1.86695099    0.62224901   -1.84450698
 H          5.28403282    1.21820796    0.23952800
 H          4.25502777   -0.34192100    1.86182296
 H          1.62469399    0.68477201    2.28965712
 H          4.14582300   -0.89010799   -0.62740701
 H          1.82264304   -0.90430599   -0.92738003
 C          3.52274990    2.44948196   -0.03249700
 H          3.88369608    1.31188798    2.36744404
 H          2.00723505   -0.82594800    1.42812097
 C          1.98492301    2.27365494    0.13328101
 H          3.75013804    2.79480100   -1.04307997
 H          3.87387896    3.20421195    0.67310202
 H          1.43103504    2.66885495   -0.71653801
 H          1.61423695    2.72913909    1.05040705
 O          0.59395403   -2.71094799    0.30164000
 O         -0.58129400   -3.57673001   -1.39718294
 C          1.71674800   -4.19592381   -1.16592097
 C          0.47004700   -3.44420910   -0.72508103
 H          1.50085604   -4.88188314   -1.98426604
 H          2.13693500   -4.74477720   -0.32049400
 H          2.46692896   -3.46948099   -1.49151301
