55
wb97x-d4 ma-def2-tzvp(-f) cpcm(dmso) E: -1285.240889915328, G: -1284.8185956500001
 C         -3.22449303    1.17723703    0.61344802
 C         -1.74476695    1.56602895    0.63434303
 O         -1.45294297    2.61891389   -0.26542401
 C         -0.93606001    0.30658400    0.32126701
 O         -0.93592298   -0.53450799    1.40774095
 C         -1.38045502   -0.35578400   -0.98642802
 C         -2.90240192   -0.54314899   -1.02182603
 C         -3.39968300   -1.74669302   -0.20926000
 O         -3.02724195   -2.96486902   -0.82982397
 O         -3.57595396    0.66702998   -0.66913599
 O         -0.94775701    0.52207500   -2.03113890
 O         -4.00112581    2.29881501    0.86177701
 H         -3.18516707   -0.72811800   -2.06249499
 H         -3.40764308    0.41302401    1.38082099
 H          0.15458500    0.67341602    0.10886400
 H         -0.89360398   -1.33021402   -1.08528101
 C         -5.36492014    1.98738801    1.15139699
 H         -1.44220304    2.24185300   -1.15857697
 H         -3.04061294   -1.71273994    0.82212698
 H         -4.49176598   -1.69809198   -0.19282900
 H         -1.26498401    0.17772301   -2.87483501
 H         -0.41826501   -1.38105404    1.20248401
 H         -2.09663796   -3.18243599   -0.59397900
 H         -5.42657185    1.27381003    1.98044097
 H         -5.86809492    1.57165802    0.27491599
 H         -5.84608316    2.92180300    1.43851399
 H         -1.48817897    1.91103005    1.63813305
 C          3.50662208    2.35402107   -0.69781399
 C          1.96973705    2.24321198   -0.47794300
 C          4.18184185    1.14372504   -0.04205000
 C          3.76672506   -0.12437900   -0.79736102
 C          2.21524000   -0.14515001   -0.90505898
 N          1.71890903    0.88511002    0.01122600
 H          3.86350298    3.28518510   -0.25484899
 H          1.60963595    2.94191790    0.27574900
 H          5.26671124    1.25943899   -0.06634400
 H          4.19374323   -0.13796000   -1.80145597
 H          1.79833102   -1.10284901   -0.59798402
 H          3.72817492    2.37765908   -1.76676595
 H          1.41092598    2.38514590   -1.40135598
 C          3.69359493    1.03475404    1.40709901
 H          4.11520004   -1.01288700   -0.26658201
 H          1.86672401    0.10599400   -1.90516806
 C          2.17785907    0.68215197    1.38656700
 H          3.84896588    1.97969604    1.93151498
 H          4.23399210    0.25317100    1.94338799
 H          1.59737599    1.33118403    2.04202294
 H          1.99306095   -0.35916001    1.64660299
 O          0.61289603   -2.54533195    1.04096305
 O         -0.49450001   -3.79822111   -0.44925499
 C          1.80684900   -4.29129505   -0.03339000
 C          0.53318202   -3.49420595    0.20412500
 H          2.28605199   -4.52934694    0.91790998
 H          2.50039101   -3.66771603   -0.60599202
 H          1.60720003   -5.20459414   -0.59303802
