55
wb97x-d4 ma-def2-tzvp(-f) cpcm(dmso) E: -1285.241174013619, G: -1284.8182214
 C         -3.19047904    0.99481601    0.66666400
 C         -1.70925701    1.36799598    0.72944999
 O         -1.44053900    2.52305698   -0.05751400
 C         -0.88402098    0.21560501    0.17052899
 O         -0.79736698   -0.78273702    1.11576700
 C         -1.37747598   -0.22663499   -1.21388698
 C         -2.89055800   -0.47283500   -1.21056402
 C         -3.33722591   -1.78952205   -0.56119299
 O         -2.84174299   -2.90850592   -1.27975702
 O         -3.58068800    0.65214902   -0.65398198
 O         -1.02671194    0.75231999   -2.18740511
 O         -3.91383004    2.11969900    1.04671800
 H         -3.20405006   -0.50339699   -2.25670695
 H         -3.38799191    0.16030300    1.35183704
 H          0.17389700    0.64954197   -0.02541000
 H         -0.86919600   -1.14668703   -1.50267994
 C         -5.30053806    1.86090302    1.27869701
 H         -2.13009810    3.17260790    0.13457701
 H         -3.03657293   -1.84675395    0.48803201
 H         -4.42969608   -1.81529605   -0.60005802
 H         -1.29784095    1.61468196   -1.83652401
 H         -0.55879498   -1.66405797    0.68721199
 H         -1.95310497   -3.11799598   -0.91379303
 H         -5.72796297    2.78033996    1.67659402
 H         -5.41713619    1.05439103    2.01022601
 H         -5.80858803    1.59029496    0.35045201
 H         -1.43461001    1.53531301    1.77611196
 C          3.58527708    2.29817796   -0.76000202
 C          2.04865289    2.22103405   -0.51547700
 C          4.22959280    1.01665294   -0.21837400
 C          3.75624108   -0.17394300   -1.06158495
 C          2.20236993   -0.12923700   -1.14048505
 N          1.76619196    0.83770102   -0.13307600
 H          3.98244405    3.17766094   -0.25080100
 H          1.72868299    2.86694407    0.30092999
 H          5.31718397    1.09714305   -0.25743899
 H          4.16424799   -0.12530901   -2.07231402
 H          1.75212598   -1.09495103   -0.91060501
 H          3.78602695    2.40090108   -1.82818198
 H          1.47742999    2.45576406   -1.41226006
 C          3.76665497    0.80694300    1.22802997
 H          4.07916689   -1.11246097   -0.60633802
 H          1.84697998    0.21576899   -2.11008191
 C          2.23773098    0.50953197    1.21122503
 H          3.96433806    1.69991398    1.82419801
 H          4.28749084   -0.03465700    1.68712699
 H          1.69263399    1.12440503    1.92704296
 H          2.02207899   -0.54166400    1.39469302
 O         -0.44396299   -3.05651212   -0.04125200
 O          0.37417400   -5.10380697   -0.36983100
 C          1.60719097   -3.61410403    1.04128695
 C          0.42897600   -3.97455597    0.14646900
 H          1.27962995   -3.00992489    1.88929904
 H          2.31632710   -3.01601911    0.46126401
 H          2.11630106   -4.51099491    1.39314699
