55
wb97x-d4 ma-def2-tzvp(-f) cpcm(dmso) E: -1285.237974877537, G: -1284.8180949300001
 C          0.89217901   -2.70315790    0.76591903
 C          1.79568005   -1.47320700    0.70141202
 O          1.80983698   -0.79516202    1.94009101
 C          1.40967703   -0.58415103   -0.48862100
 O          2.22388601    0.48501101   -0.72234100
 C          1.29520595   -1.41971302   -1.75853705
 C          0.39920700   -2.63856697   -1.56310594
 C          0.42170501   -3.57315993   -2.76779509
 O         -0.29792601   -3.04257107   -3.87410212
 O          0.87900102   -3.40356398   -0.45758301
 O          0.76871401   -0.65549499   -2.83735991
 O         -0.37696400   -2.24321198    1.14239895
 H         -0.63209802   -2.31903291   -1.38261104
 H          1.27243602   -3.41871691    1.50239205
 H          0.30449700   -0.15311700   -0.26932299
 H          2.30658793   -1.77193296   -2.00517797
 C         -1.28690100   -3.28650999    1.49274898
 H          0.90163600   -0.76581800    2.26810408
 H          1.46199906   -3.79011202   -3.04143691
 H         -0.06383800   -4.51031780   -2.48941493
 H          1.38270497    0.06900600   -3.01166010
 H          2.27588892    1.15802503    0.06435600
 H          0.03230300   -2.14487290   -4.02197504
 H         -2.19106007   -2.80338407    1.86141503
 H         -0.85843801   -3.91706705    2.27850389
 H         -1.52845299   -3.89992595    0.62090802
 H          2.81857109   -1.81569505    0.51762301
 C         -3.34034109    0.96832699   -0.33758000
 C         -2.11008501    0.06142200   -0.62313700
 C         -2.83907509    2.35116792    0.09188500
 C         -1.85253501    2.86415505   -0.96243602
 C         -0.59831703    1.94647706   -0.95407403
 N         -0.92127597    0.77187598   -0.13367400
 H         -3.95257211    0.52675700    0.45156801
 H         -2.17640209   -0.89072502   -0.10070500
 H         -3.67841697    3.04191709    0.18938500
 H         -2.31691790    2.85087395   -1.95066297
 H          0.26268899    2.43547010   -0.50272202
 H         -3.94955206    1.04170597   -1.23997903
 H         -1.97118902   -0.11674400   -1.68891704
 C         -2.10419393    2.21951103    1.42946398
 H         -1.54885304    3.88925099   -0.74338502
 H         -0.33839801    1.60131598   -1.95283902
 C         -1.02465999    1.11155498    1.29322398
 H         -2.79735708    1.94930899    2.22793698
 H         -1.63293695    3.16818094    1.69523394
 H         -1.30499494    0.20405699    1.82645500
 H         -0.04606100    1.45311105    1.62915206
 O          2.24155498    2.32839608    0.99850100
 O          4.36212397    1.86073196    1.53595901
 C          3.24992394    3.62041807    2.71967196
 C          3.31050706    2.51918006    1.66913497
 H          2.73009300    3.22906899    3.59958291
 H          2.68099093    4.47518682    2.35000706
 H          4.25020981    3.93447495    3.01811409
