55
wb97x-d4 ma-def2-tzvp(-f) cpcm(dmso) E: -1285.247566289421, G: -1284.82593412
 C         -2.47568488   -0.28453800    1.26252902
 C         -1.57830501   -1.40832901    0.74922502
 O         -0.67144799   -1.78821194    1.74923503
 C         -0.89461398   -0.98071700   -0.55294502
 O         -0.15872300   -1.95233595   -1.18127000
 C         -1.89338899   -0.40062201   -1.54444695
 C         -2.78566694    0.65658402   -0.89972699
 C         -3.91898894    1.09676194   -1.81909800
 O         -3.45466089    1.90628195   -2.89327192
 O         -3.40186501    0.10488300    0.26247400
 O         -1.23373902    0.19742000   -2.65753603
 O         -1.66847706    0.77973700    1.67240095
 H         -2.18824196    1.53391194   -0.63243699
 H         -3.09079409   -0.64231402    2.09519601
 H         -0.14535800   -0.09616000   -0.26130301
 H         -2.53025889   -1.22820497   -1.88516295
 C         -2.39102292    1.81574595    2.33544397
 H         -0.40127099   -2.73308897    1.59312105
 H         -4.45074987    0.21270099   -2.19326711
 H         -4.62046099    1.70150197   -1.24122202
 H         -0.75699800   -0.49672201   -3.12943006
 H          0.47950700   -2.44922090   -0.57083499
 H         -2.70969510    1.43890297   -3.29788208
 H         -2.96044588    1.40644300    3.17683506
 H         -3.07401109    2.32361889    1.64883399
 H         -1.65210605    2.52641296    2.70503497
 H         -2.24476194   -2.24258304    0.48910099
 C          3.33757901    1.17065704   -0.99028802
 C          2.01914692    0.36433399   -1.16459405
 C          3.08659410    2.31188202   -0.00009900
 C          2.77145290    1.71405602    1.37469697
 C          1.61553895    0.68692303    1.21624398
 N          1.08112895    0.84169298   -0.14395601
 H          3.64766598    1.56320703   -1.96027505
 H          1.56243396    0.53012800   -2.13897300
 H          3.96611905    2.95520711    0.06173000
 H          3.64701104    1.20945001    1.78698802
 H          0.80329001    0.86293101    1.91718304
 H          4.12922096    0.51597601   -0.62042099
 H          2.17207694   -0.70348400   -1.01579905
 C          1.87394702    3.12028599   -0.47187901
 H          2.47577310    2.50269794    2.06979299
 H          1.96115506   -0.34079900    1.31708002
 C          0.61570001    2.20906305   -0.41104701
 H          2.02870011    3.47266293   -1.49372602
 H          1.71920896    3.99055696    0.16830300
 H          0.07176500    2.20282602   -1.35398602
 H         -0.05833300    2.49027109    0.39619601
 O          0.13280299   -4.28433609    1.40951896
 O          1.62006700   -3.36751008    0.01918100
 C          2.16441488   -5.47006512    1.00902700
 C          1.23198402   -4.29142094    0.79121900
 H          2.85404491   -5.58492422    0.17280599
 H          1.59397197   -6.38723278    1.15975797
 H          2.74776697   -5.28288794    1.91572499
