55
wb97x-d4 ma-def2-tzvp(-f) cpcm(dmso) E: -1285.241269909578, G: -1284.81772709
 C         -3.24812102    1.07911599    0.34564599
 C         -1.77656102    1.49549305    0.37524301
 O         -1.49499297    2.44206691   -0.64945298
 C         -0.90849000    0.26710001    0.13265599
 O         -0.84886098   -0.48317200    1.28553605
 C         -1.33257103   -0.49480599   -1.13039505
 C         -2.83825588   -0.78079897   -1.12191296
 C         -3.27107191   -1.92476702   -0.19448400
 O         -2.70388699   -3.15846610   -0.60946202
 O         -3.57625008    0.41985500   -0.86809301
 O         -0.96233600    0.24307001   -2.29047203
 O         -4.00408697    2.24401498    0.41433999
 H         -3.10905004   -1.06566596   -2.14115906
 H         -3.46356392    0.42888799    1.20328295
 H          0.15455900    0.66783100   -0.11747600
 H         -0.79449099   -1.44098604   -1.18101501
 C         -5.39385891    2.01609111    0.65997797
 H         -2.20465112    3.09851003   -0.64273900
 H         -3.01666403   -1.71839499    0.84801501
 H         -4.35883808   -2.00922203   -0.26538801
 H         -1.26581299    1.15450704   -2.15843892
 H         -0.55115402   -1.42668402    1.08450198
 H         -1.82148004   -3.23522305   -0.18356700
 H         -5.85275078    2.99513602    0.79136503
 H         -5.52410412    1.42366505    1.57166004
 H         -5.86075020    1.50102401   -0.18241499
 H         -1.55112302    1.90916395    1.36350501
 C          3.76622796    1.04579401    1.03306103
 C          2.22684693    0.81673998    1.10569501
 C          4.20622492    0.91718501   -0.42992201
 C          3.57277203    2.05446291   -1.23983002
 C          2.03456712    2.04572511   -0.99232799
 N          1.74114704    0.80560702   -0.27357399
 H          4.26781321    0.30356100    1.65595698
 H          1.97508001   -0.14179400    1.55594599
 H          5.29412889    0.96879202   -0.49951199
 H          3.97818995    3.01997709   -0.93324202
 H          1.46848202    2.04629707   -1.92245102
 H          4.01085377    2.03780007    1.41741300
 H          1.71822500    1.61736095    1.64206600
 C          3.70587397   -0.42477500   -0.97586799
 H          3.77651596    1.92020202   -2.30388808
 H          1.71297002    2.87850189   -0.36854699
 C          2.15036798   -0.38975501   -1.01236105
 H          4.04430723   -1.24330103   -0.33721700
 H          4.08202791   -0.60011500   -1.98498797
 H          1.71001005   -1.26058996   -0.52748102
 H          1.76185000   -0.30260000   -2.02545595
 O         -0.32642299   -2.93263602    0.68089700
 O          0.60794801   -4.95166111    0.81365198
 C          1.66965103   -3.14844894    1.97250104
 C          0.57259297   -3.74272203    1.10016501
 H          2.13712192   -3.92012000    2.58400393
 H          1.27904606   -2.35034800    2.60590601
 H          2.43479300   -2.71648192    1.32014298
