55
wb97x-d4 ma-def2-tzvp(-f) cpcm(dmso) E: -1285.240988097059, G: -1284.8175706900001
 C         -3.19180989    1.05408394    0.38421601
 C         -1.71582699    1.45221603    0.40490299
 O         -1.43616998    2.42197394   -0.59855598
 C         -0.86651498    0.21973699    0.11835000
 O         -0.80159903   -0.55900800    1.25256395
 C         -1.31689095   -0.50325000   -1.15874195
 C         -2.82778406   -0.75963902   -1.14958203
 C         -3.27578998   -1.92608297   -0.25837201
 O         -2.73920488   -3.15535808   -0.72390300
 O         -3.54282498    0.44431901   -0.84927702
 O         -0.93745399    0.25568399   -2.30285406
 O         -3.93485808    2.22251391    0.50850499
 H         -3.11085510   -1.00497103   -2.17570210
 H         -3.40129805    0.37382600    1.21966100
 H          0.19238199    0.61602902   -0.13986200
 H         -0.79683697   -1.45795298   -1.23643994
 C         -5.32207203    1.99819195    0.77120799
 H         -2.13423109    3.08967400   -0.56257701
 H         -3.00580502   -1.76351595    0.78806001
 H         -4.36586285   -1.98443103   -0.31972900
 H         -1.22652400    1.16838598   -2.14925289
 H         -0.55070502   -1.51194596    1.02696300
 H         -1.86079001   -3.26954293   -0.29926300
 H         -5.44131804    1.36891401    1.65942299
 H         -5.81049681    1.52397501   -0.08291600
 H         -5.76797724    2.97522807    0.95281899
 H         -1.47098505    1.83652306    1.40038097
 C          3.81564593    0.91805100    0.98530197
 C          2.26005411    0.95557898    1.05486298
 C          4.23517990    1.03479600   -0.48499501
 C          3.55406404    2.26162100   -1.10233903
 C          2.01544499    2.01549602   -1.12771904
 N          1.77916300    0.81982702   -0.31821701
 H          4.18496180   -0.01705700    1.41070199
 H          1.85289097    0.13482900    1.64494801
 H          5.31970596    1.13182199   -0.55856699
 H          3.77688789    3.15428591   -0.51460803
 H          1.64563799    1.81641805   -2.13217306
 H          4.21787500    1.74455297    1.57313502
 H          1.88988400    1.90317094    1.44479597
 C          3.76595998   -0.22044501   -1.22897196
 H          3.90455103    2.42771912   -2.12223911
 H          1.45943606    2.84368110   -0.69132102
 C          2.24135089   -0.40648100   -0.96815401
 H          4.29930115   -1.10382998   -0.87455899
 H          3.94738793   -0.11715400   -2.30047107
 H          2.03660202   -1.23946702   -0.29698300
 H          1.67940998   -0.53470999   -1.89216006
 O         -0.38195300   -3.01253796    0.60712099
 O          0.58048600   -5.02018881    0.71977800
 C          1.37098396   -3.30211902    2.19326711
 C          0.46986100   -3.83916998    1.08995199
 H          1.84789002   -2.37405205    1.87102306
 H          2.13175797   -4.03129911    2.46922994
 H          0.75967902   -3.06891394    3.06933498
