55
wb97x-d4 ma-def2-tzvp(-f) cpcm(dmso) E: -1285.23983802962, G: -1284.81728371
 C         -3.07334805    0.85192901    1.30077696
 C         -1.56043398    1.11804402    1.17350197
 O         -1.27978599    2.14804792    0.23544399
 C         -0.81822199   -0.12369300    0.69785601
 O         -0.51094002   -0.94014603    1.76499605
 C         -1.49590600   -0.85317701   -0.48440999
 C         -2.81615400   -0.17535201   -0.84454697
 C         -3.63105297   -1.00889397   -1.82485497
 O         -3.02112508   -1.03495204   -3.11149096
 O         -3.57156992   -0.07896500    0.36316201
 O         -0.66522098   -0.93971401   -1.62780797
 O         -3.70139289    2.09996200    1.17458200
 H         -2.64108992    0.81326598   -1.27743804
 H         -3.29392505    0.42246899    2.28346300
 H          0.17416100    0.29954800    0.24976100
 H         -1.74428797   -1.86046505   -0.12941299
 C         -5.08421183    2.08483410    1.52819002
 H         -1.97096896    2.81694508    0.33443701
 H         -3.75240707   -2.02485299   -1.42666495
 H         -4.62192678   -0.56395298   -1.93912196
 H         -0.08401800   -1.73954201   -1.48506796
 H         -0.16230600   -1.81449199    1.41350400
 H         -2.07107306   -1.16794503   -2.95592999
 H         -5.20918179    1.74055600    2.56043601
 H         -5.65125084    1.43779004    0.85485399
 H         -5.44301796    3.10939598    1.43823695
 H         -1.18747604    1.39515400    2.16522002
 C          3.16799212    2.07359910   -1.38320100
 C          1.73641801    1.46960199   -1.27052498
 C          4.00832510    1.56909597   -0.20436700
 C          3.94813395    0.03791400   -0.17636700
 C          2.48202896   -0.39198899    0.12239500
 N          1.66192603    0.81692302    0.03792300
 H          3.11231995    3.16392803   -1.36810601
 H          0.96143103    2.23262000   -1.31291401
 H          5.04206085    1.90239501   -0.31192300
 H          4.26382399   -0.37005901   -1.13848400
 H          2.37200689   -0.79851598    1.12700999
 H          3.61204290    1.76745498   -2.33181310
 H          1.54553604    0.71370798   -2.02959800
 C          3.41319299    2.11284304    1.09989500
 H          4.60516596   -0.36289400    0.59712702
 H          2.10908103   -1.11405897   -0.60148698
 C          1.90237999    1.74011004    1.14735305
 H          3.51437593    3.19826198    1.14892006
 H          3.93020391    1.68306196    1.95998800
 H          1.25892603    2.60595608    1.00334501
 H          1.63388205    1.23542905    2.07568192
 O          0.44096500   -3.24330091    0.99414498
 O          0.76321799   -3.10106993   -1.22040796
 C          1.52289402   -5.05935383   -0.08698800
 C          0.86039603   -3.69038105   -0.10951100
 H          0.76340598   -5.81356812    0.13629800
 H          2.26931500   -5.09732914    0.70895803
 H          1.98668003   -5.29217577   -1.04502499
