55
wb97x-d4 ma-def2-tzvp(-f) cpcm(dmso) E: -1285.236203004697, G: -1284.8171701800002
 C          0.89229202   -2.28221989    0.59929800
 C          1.40074503   -0.92467302    1.08723199
 O          0.85410500   -0.62068999    2.35934091
 C          1.11913705    0.15443900    0.04108000
 O          1.59775901    1.40316999    0.32492101
 C          1.57336700   -0.30478099   -1.34370005
 C          1.01119304   -1.67505002   -1.70017397
 C          1.57967198   -2.21643710   -3.00684404
 O          1.05572498   -1.53395605   -4.14002991
 O          1.38567603   -2.60392308   -0.68166602
 O          1.17348695    0.62007302   -2.34814501
 O         -0.50897700   -2.21405911    0.63588297
 H         -0.07871300   -1.62456703   -1.78432500
 H          1.24994504   -3.08321309    1.25446999
 H         -0.06198800    0.26789099   -0.04499100
 H          2.66934395   -0.37819001   -1.31292999
 C         -1.15466106   -3.47408795    0.45395699
 H         -0.06457900   -0.92074001    2.35267091
 H          2.67500591   -2.15487695   -2.98098898
 H          1.29553199   -3.26604295   -3.10337496
 H          1.60882902    1.46152103   -2.16069007
 H          2.22269893    1.42990100    1.15784001
 H          1.17267001   -0.58694702   -3.97713304
 H         -2.21971107   -3.30647111    0.61074698
 H         -0.78404301   -4.20117617    1.18371296
 H         -0.98790801   -3.85290694   -0.55781198
 H          2.48547196   -0.98331100    1.20928800
 C         -3.45862293    1.50150800    1.17294300
 C         -2.11068392    0.72714698    1.19043303
 C         -3.79100895    1.86130095   -0.27817199
 C         -3.72362494    0.58850503   -1.12926602
 C         -2.25161695    0.09024200   -1.15829206
 N         -1.51671195    0.85584801   -0.14531200
 H         -3.37576890    2.40730309    1.77693105
 H         -1.41213298    1.14485896    1.91475797
 H         -4.78746319    2.30232501   -0.33829400
 H         -4.36931086   -0.18314999   -0.70515400
 H         -1.77523506    0.27298599   -2.12049699
 H         -4.23793077    0.87287903    1.60691905
 H         -2.25270891   -0.33437300    1.38754201
 C         -2.74177098    2.85568500   -0.78591901
 H         -4.05473900    0.78571898   -2.15019298
 H         -2.17561007   -0.96623099   -0.90823501
 C         -1.32788599    2.25700808   -0.53403002
 H         -2.82694888    3.80889702   -0.26176700
 H         -2.88043690    3.04005003   -1.85319698
 H         -0.80622101    2.75888801    0.27921101
 H         -0.70968997    2.28225303   -1.42914104
 O          3.15095711    1.64536798    2.27729893
 O          4.59154510    0.23454300    1.30644298
 C          5.19421911    1.22165799    3.40695000
 C          4.25559807    1.00678802    2.22711301
 H          4.73694611    0.80022103    4.30641079
 H          5.33667898    2.29054999    3.58043790
 H          6.15810585    0.74254698    3.23644090
