55
wb97x-d4 ma-def2-tzvp(-f) cpcm(dmso) E: -1285.238537270309, G: -1284.81702083
 C         -3.12833595    0.91951698    0.60047501
 C         -1.67552698    1.37853003    0.68912703
 O         -1.43813396    2.48562098   -0.17612600
 C         -0.76414800    0.23795800    0.25496599
 O         -0.61927497   -0.65555000    1.28615606
 C         -1.18780601   -0.34814599   -1.10408998
 C         -2.69997501   -0.60242200   -1.21943700
 C         -3.23024988   -1.94852400   -0.72674900
 O         -3.13299489   -2.19756198    0.66146302
 O         -3.45101190    0.51154900   -0.72059500
 O         -0.76957500    0.54740602   -2.13618803
 O         -3.92368388    2.02196193    0.90617597
 H         -2.90496707   -0.60139698   -2.29428697
 H         -3.30293298    0.09713300    1.30211496
 H          0.26201501    0.72387499    0.02567700
 H         -0.65612900   -1.28691196   -1.27228904
 C         -5.30122709    1.69820797    1.10194802
 H         -2.18821406    3.08874106   -0.08783800
 H         -4.28987217   -1.98268700   -1.00144601
 H         -2.71507502   -2.73152804   -1.29797006
 H         -1.08551097    1.42980003   -1.88772702
 H         -0.15360001   -1.49878001    0.96274501
 H         -2.32720089   -2.74309707    0.81192201
 H         -5.75996780    1.35542500    0.17163900
 H         -5.79346418    2.61015606    1.43791497
 H         -5.40267086    0.92236602    1.86822605
 H         -1.45228302    1.64145005    1.72818303
 C          3.50784612    2.74982095   -0.60082197
 C          1.99220395    2.39572692   -0.68713599
 C          4.28261900    1.48580897   -0.21041299
 C          3.90659499    0.35630599   -1.17618096
 C          2.40206099    0.00767400   -0.96473801
 N          1.85188305    1.05945694   -0.11029900
 H          3.66376495    3.53434610    0.14225700
 H          1.37535703    3.08625102   -0.11457100
 H          5.35639906    1.67615998   -0.25508299
 H          4.07224894    0.66925400   -2.20894694
 H          2.26497102   -0.94453001   -0.45369199
 H          3.84126210    3.12532401   -1.56965601
 H          1.63578796    2.35447693   -1.71519303
 C          3.87940907    1.07322502    1.20937204
 H          4.50933504   -0.53365397   -0.98820299
 H          1.84593797    0.00484000   -1.90067995
 C          2.32496595    0.97833800    1.26893902
 H          4.21876287    1.80820405    1.94090295
 H          4.32088804    0.10762600    1.46321905
 H          1.88392401    1.80663800    1.82259405
 H          1.98600805    0.03372800    1.69380295
 O          0.69032300   -2.73797488    0.52926397
 O         -1.13169503   -3.98470998    0.88505203
 C          0.92021298   -5.10478210    0.39976999
 C          0.08787300   -3.85027003    0.61410302
 H          1.42296505   -5.34774303    1.34083903
 H          1.68851197   -4.93375587   -0.35544500
 H          0.29139599   -5.94887495    0.11695400
