55
wb97x-d4 ma-def2-tzvp(-f) cpcm(dmso) E: -1285.236189685156, G: -1284.8165390400002
 C          0.91641301   -2.26672411    0.59649199
 C          1.39611995   -0.90612400    1.10549796
 O          0.84095502   -0.63011497    2.37991500
 C          1.09665298    0.18061499    0.07274400
 O          1.54126406    1.43611503    0.37898499
 C          1.56940997   -0.24951699   -1.31523299
 C          1.04491496   -1.62841702   -1.69556296
 C          1.64965403   -2.13989806   -2.99848700
 O          1.13543296   -1.45311701   -4.13336992
 O          1.42631400   -2.56230807   -0.68413597
 O          1.15320599    0.67854202   -2.31011891
 O         -0.48603001   -2.22392106    0.62247598
 H         -0.04462900   -1.60227704   -1.79606402
 H          1.28350699   -3.06948304    1.24425197
 H         -0.08845400    0.26975599   -0.02037300
 H          2.66652298   -0.29553100   -1.27715600
 C         -1.10832906   -3.49235392    0.41865399
 H         -0.07249600   -0.94548601    2.36677194
 H          2.74267602   -2.05596805   -2.94865894
 H          1.38982999   -3.19377995   -3.11475992
 H          1.56900799    1.52699697   -2.11002898
 H          2.19343805    1.45608306    1.19199395
 H          1.22413802   -0.50606102   -3.95350909
 H         -2.17743301   -3.34489989    0.56800801
 H         -0.73175502   -4.22250891    1.14225304
 H         -0.92644900   -3.85520005   -0.59635502
 H          2.48164010   -0.94687802    1.22863400
 C         -2.80524898    2.81861806   -0.73627901
 C         -1.38262296    2.24011898   -0.48818800
 C         -3.83973908    1.79554999   -0.25661999
 C         -3.51321912    1.41480803    1.19041705
 C         -2.14929891    0.66948199    1.20649302
 N         -1.54737103    0.82939798   -0.12256200
 H         -2.94069505    3.02356291   -1.80021501
 H         -0.76140797    2.29019308   -1.38011503
 H         -4.84373522    2.21907306   -0.31739199
 H         -3.45589900    2.31012201    1.81273794
 H         -2.26987791   -0.39747301    1.38775301
 H         -2.91099906    3.75866795   -0.19241901
 H         -0.87246102    2.73769498    0.33484200
 C         -3.74176192    0.54017198   -1.13037097
 H         -4.28312397    0.76140898    1.60416496
 H         -1.46513200    1.09152997    1.94196796
 C         -2.26145792    0.06652300   -1.15288198
 H         -4.06561089    0.75125700   -2.15087104
 H         -4.37905407   -0.24973200   -0.72773802
 H         -1.77984202    0.27062699   -2.10818410
 H         -2.16980290   -0.99203402   -0.91735399
 O          3.15337896    1.64448905    2.28830099
 O          4.59249783    0.35724899    1.15794301
 C          5.26147795    1.22492301    3.29222798
 C          4.27577114    1.05218995    2.14440393
 H          5.39921904    2.28722906    3.50599909
 H          6.22275877    0.76698500    3.05994296
 H          4.84774113    0.75982600    4.19113016
