55
wb97x-d4 ma-def2-tzvp(-f) cpcm(dmso) E: -1285.23963017201, G: -1284.81653703
 C         -3.23252702    1.42594004    0.49048001
 C         -1.82026899    1.55669200    1.08011198
 O         -1.19086599    2.75622511    0.66656601
 C         -0.98919702    0.29117799    0.79737502
 O         -0.81632298   -0.41369799    1.97102499
 C         -1.51287401   -0.56990999   -0.35448101
 C         -3.00507903   -0.88230300   -0.14413799
 C         -3.23940611   -2.20396399    0.58585399
 O         -2.82431006   -3.30834007   -0.19338900
 O         -3.69550109    0.11069800    0.63624799
 O         -1.23928797    0.04196600   -1.60943198
 O         -3.18428111    1.84243596   -0.85447401
 H         -3.47070789   -0.94400698   -1.13405001
 H         -3.94032192    2.05298996    1.04035294
 H          0.04000500    0.68031299    0.41439900
 H         -0.96114600   -1.51111603   -0.36198300
 C         -4.47400999    2.01822996   -1.44942796
 H         -1.43236899    2.91355395   -0.25609699
 H         -2.72985506   -2.18361306    1.55492198
 H         -4.31266117   -2.29978108    0.77096403
 H         -1.86610401    0.77522600   -1.71443605
 H         -0.37273699   -1.29680705    1.79931796
 H         -1.86226594   -3.46304488   -0.03889600
 H         -5.00493717    1.06531799   -1.51012897
 H         -4.30564690    2.41099405   -2.45093989
 H         -5.06052494    2.73200989   -0.86361700
 H         -1.92723799    1.61299706    2.16436791
 C          3.70716906    1.62913096    0.81497300
 C          2.23775291    1.28882301    1.20310700
 C          3.93726707    1.20392096   -0.63996798
 C          3.05560398    2.06453109   -1.55211699
 C          1.58562005    1.98354197   -1.04251099
 N          1.55244195    0.92109001   -0.03593500
 H          4.38614321    1.10087800    1.48610103
 H          2.17939711    0.43870300    1.88221204
 H          4.98820686    1.33013904   -0.90597200
 H          3.38138103    3.10585308   -1.53626299
 H          0.88692701    1.72230995   -1.83508301
 H          3.88056707    2.70106006    0.92759502
 H          1.72113502    2.14220905    1.64059305
 C          3.52519894   -0.26386800   -0.79889798
 H          3.11273694    1.70458996   -2.58131099
 H          1.26583505    2.90645790   -0.56278300
 C          1.99127603   -0.37367100   -0.55995297
 H          4.05847788   -0.88874298   -0.07973500
 H          3.75723290   -0.62500298   -1.80209398
 H          1.74579406   -1.13695395    0.17678300
 H          1.44303405   -0.56122601   -1.48174000
 O          0.55103898   -2.61856508    1.76505899
 O         -0.21416800   -3.87690306    0.07697800
 C          2.00322199   -4.27114677    0.87566698
 C          0.66803801   -3.54086804    0.90694100
 H          1.97231996   -5.13309717    0.20989300
 H          2.27792811   -4.58778000    1.88385296
 H          2.77286291   -3.57559991    0.52811301
