55
wb97x-d4 ma-def2-tzvp(-f) cpcm(dmso) E: -1285.235340936507, G: -1284.8164775
 C          0.25815600   -2.47792292    1.30604196
 C          0.79804301   -1.17778206    1.88209295
 O          0.02127100   -0.78535700    2.99597907
 C          0.86334997   -0.08201200    0.82020003
 O          1.32409799    1.08689594    1.36868000
 C          1.56946301   -0.55652201   -0.44194001
 C          1.06004500   -1.94078898   -0.87024802
 C          1.94884706   -2.57182193   -1.93214595
 O          1.91638100   -1.73904502   -3.09535599
 O          1.07271397   -2.86686611    0.21541800
 O          1.32640803    0.40191001   -1.46513796
 O         -1.07642496   -2.29274607    0.94058800
 H          0.04331700   -1.83702099   -1.26367903
 H          0.34776300   -3.29258108    2.03274703
 H         -0.25818300    0.12710300    0.49311501
 H          2.64336801   -0.62208599   -0.21986000
 C         -1.73200798   -3.50062799    0.55795401
 H          0.37813601    0.05901400    3.30111003
 H          2.97019911   -2.65403295   -1.54633200
 H          1.57415605   -3.57349992   -2.16455603
 H          1.65840900    0.01092800   -2.28849292
 H          2.19367909    1.44642997    0.93526697
 H          2.64474607   -1.99236202   -3.67300797
 H         -1.64341795   -4.25158596    1.35048902
 H         -1.31311703   -3.90054607   -0.36970901
 H         -2.78217292   -3.25285196    0.40513799
 H          1.83293104   -1.37903202    2.19048691
 C         -3.34846997    1.00899696   -1.57658195
 C         -2.13407993    0.16309300   -1.09547496
 C         -3.69669390    2.02696991   -0.48529801
 C         -2.53720403    3.01946211   -0.34120300
 C         -1.21947503    2.21514606   -0.16085100
 N         -1.59974897    0.82497197    0.09915900
 H         -4.19317198    0.34537500   -1.76920402
 H         -2.42191410   -0.84780401   -0.81367898
 H         -4.61550283    2.55646300   -0.74343503
 H         -2.45111299    3.64923692   -1.22839606
 H         -0.62757701    2.57013798    0.68207198
 H         -3.09981608    1.52245605   -2.50772595
 H         -1.34329796    0.12319400   -1.84240997
 C         -3.86907411    1.28087401    0.84182602
 H         -2.70285702    3.66829801    0.52127701
 H         -0.60326803    2.22302294   -1.05804801
 C         -2.49145889    0.69413102    1.25756204
 H         -4.59962082    0.47661099    0.73166502
 H         -4.22208309    1.95575094    1.62359703
 H         -2.54937601   -0.35920799    1.52123904
 H         -2.04271603    1.24748099    2.08141208
 O          3.44357991    2.12070394    0.47165099
 O          4.61485004    0.34835601    1.17701995
 C          5.80280685    2.18427610    0.19749001
 C          4.53092003    1.47682095    0.65031397
 H          6.06867981    2.93408608    0.94863898
 H          5.63761520    2.70493698   -0.74733698
 H          6.62991285    1.48096395    0.09988000
