55
wb97x-d4 ma-def2-tzvp(-f) cpcm(dmso) E: -1285.247549922213, G: -1284.8259296200001
 C         -0.05270500   -3.11341310    0.30867401
 C          0.45114300   -2.21743107    1.43108594
 O         -0.51123297   -2.17010903    2.46787310
 C          0.79893303   -0.83492702    0.89830703
 O          1.24906397   -0.05216000    1.93461895
 C          1.71703804   -0.89826697   -0.32152700
 C          1.20252800   -1.92508805   -1.33229899
 C          2.18648696   -2.18508196   -2.46032000
 O          3.45541906   -2.65872097   -2.01326108
 O          0.92806399   -3.18187094   -0.70507598
 O          1.79964900    0.35186499   -0.96587300
 O         -1.27239299   -2.61035895   -0.15518899
 H          0.28589600   -1.53332102   -1.78782296
 H         -0.17463700   -4.14320612    0.66219199
 H         -0.21254100   -0.35279399    0.50361699
 H          2.70286608   -1.21701705    0.04404700
 C         -1.90343702   -3.45830703   -1.11235201
 H         -0.15657000   -1.60191798    3.16306901
 H          1.77005196   -2.96273398   -3.10435700
 H          2.29770398   -1.27067602   -3.04795790
 H          2.59792495    0.83981401   -0.61936498
 H          1.74470901    0.77374500    1.63856804
 H          4.00421381   -1.90037203   -1.78561401
 H         -2.01777911   -4.47119522   -0.71101499
 H         -1.32907295   -3.50025010   -2.04189205
 H         -2.88609791   -3.03092194   -1.31093001
 H          1.38372505   -2.66723800    1.79674304
 C         -1.94261098    3.00420690    0.27674299
 C         -0.86193597    1.94179201    0.62868202
 C         -3.21383095    2.27838802   -0.17551500
 C         -3.62809610    1.28353906    0.91347897
 C         -2.51774311    0.20249499    1.04696000
 N         -1.38761401    0.63699400    0.21895900
 H         -1.57549095    3.65490103   -0.51947600
 H          0.07301200    2.11016011    0.09797600
 H         -4.01447916    2.99935007   -0.35005599
 H         -3.76037097    1.80063295    1.86602402
 H         -2.83922601   -0.76950300    0.67993402
 H         -2.14250112    3.62083507    1.15457594
 H         -0.66465402    1.89978397    1.69885600
 C         -2.91193104    1.50530803   -1.46401203
 H         -4.57180214    0.79964799    0.65578902
 H         -2.16560102    0.09984200    2.07183194
 C         -1.68647897    0.57946998   -1.21556795
 H         -2.68399596    2.19217801   -2.28089190
 H         -3.77646399    0.90530998   -1.75501704
 H         -0.79956001    0.91566300   -1.74973297
 H         -1.89731300   -0.45607099   -1.47500002
 O          2.56965995    2.15475011    1.63603902
 O          3.89354205    1.66999996   -0.09769400
 C          4.54567909    3.44861197    1.36612594
 C          3.60203099    2.33912992    0.93146002
 H          4.90903187    3.23854208    2.37510109
 H          3.99826789    4.39339495    1.40451896
 H          5.39152622    3.54259396    0.68596500
