55
wb97x-d4 ma-def2-tzvp(-f) cpcm(dmso) E: -1285.236219816294, G: -1284.8162244700002
 C          0.93488997   -2.26172400    0.58639902
 C          1.41762602   -0.89891499    1.08655596
 O          0.87525803   -0.62125099    2.36627197
 C          1.10476696    0.18521200    0.05469900
 O          1.55457795    1.44146895    0.35084000
 C          1.55863094   -0.24815400   -1.33853495
 C          1.02995706   -1.62847304   -1.70735705
 C          1.61011899   -2.14083409   -3.02075291
 O          1.06489098   -1.46126795   -4.14558887
 O          1.42995799   -2.55879211   -0.69989401
 O          1.12802100    0.67706001   -2.32998610
 O         -0.46722400   -2.22195697    0.62937403
 H         -0.06107000   -1.60471797   -1.78898394
 H          1.31177294   -3.06219506    1.23136699
 H         -0.08112900    0.27378801   -0.02305600
 H          2.65623212   -0.29360601   -1.31628203
 C         -1.08942997   -3.49192095    0.43525901
 H         -0.03752700   -0.93888998    2.36327910
 H          2.70337296   -2.04919410   -2.99632812
 H          1.35488904   -3.19682789   -3.12761211
 H          1.54818702    1.52560306   -2.13977098
 H          2.20666790    1.46648300    1.16315103
 H          1.15635705   -0.51317197   -3.97287798
 H         -0.92104000   -3.85513496   -0.58196002
 H         -2.15664506   -3.34673095    0.59956801
 H         -0.70103598   -4.22070217    1.15400302
 H          2.50441098   -0.93716699    1.19833100
 C         -2.80842209    2.81854105   -0.71677703
 C         -1.38320601    2.24223495   -0.47836500
 C         -3.83811903    1.79276597   -0.23252900
 C         -3.50245595    1.41009402    1.21191001
 C         -2.13645005    0.66821897    1.21910095
 N         -1.54329097    0.83087403   -0.11348500
 H         -2.95074201    3.02495599   -1.77952504
 H         -0.76777899    2.29459596   -1.37414098
 H         -4.84321690    2.21457410   -0.28668201
 H         -3.44393301    2.30434799    1.83563304
 H         -2.25298691   -0.39920601    1.40030897
 H         -2.91253090    3.75750899   -0.17073900
 H         -0.86871499    2.73966503    0.34207901
 C         -3.74309111    0.53912300   -1.10898399
 H         -4.26839876    0.75393897    1.62863004
 H         -1.44892502    1.09147298    1.95073700
 C         -2.26227808    0.06750700   -1.13997602
 H         -4.07249212    0.75161397   -2.12741399
 H         -4.37719011   -0.25237101   -0.70445901
 H         -1.78639603    0.27241200   -2.09794688
 H         -2.16809607   -0.99099499   -0.90499097
 O          3.16813111    1.66544199    2.25815392
 O          4.60414124    0.35321900    1.15274799
 C          5.25382710    1.21356499    3.29524493
 C          4.28340387    1.05621004    2.13237190
 H          4.83520412    0.71836001    4.17583609
 H          5.37550306    2.27100110    3.53978896
 H          6.22301102    0.77234298    3.06335497
