55
wb97x-d4 ma-def2-tzvp(-f) cpcm(dmso) E: -1285.23554476837, G: -1284.81611326
 C          0.97951603   -2.21364498    0.42023799
 C          1.42150700   -0.89354002    1.05113697
 O          0.84900498   -0.73478699    2.33825111
 C          1.10739899    0.27168700    0.11432800
 O          1.52715600    1.50266397    0.53517598
 C          1.57784605   -0.00694700   -1.31660998
 C          1.09653902   -1.36845601   -1.80418098
 C          1.69063401   -1.72240400   -3.14883900
 O          1.07221603   -2.92039299   -3.61616111
 O          1.51381099   -2.37123609   -0.87210798
 O          1.10440803    0.99414098   -2.20336294
 O         -0.42442900   -2.21237397    0.43164101
 H          0.00554400   -1.37235105   -1.88542295
 H          1.36180699   -3.06218100    0.99753302
 H         -0.08042200    0.34466001    0.02336000
 H          2.67706800   -0.01040100   -1.29474902
 C         -1.00519001   -3.46842790    0.08195800
 H         -0.05320700   -1.07745695    2.29517889
 H          1.50648296   -0.89573598   -3.84069896
 H          2.77294588   -1.85932899   -3.03901505
 H          1.40298200    1.84381700   -1.85370803
 H          2.16371703    1.46586299    1.36032403
 H          1.45784795   -3.13906789   -4.47155094
 H         -2.07949710   -3.37129402    0.23526400
 H         -0.61076099   -4.26267481    0.72411901
 H         -0.80501902   -3.71146011   -0.96483701
 H          2.50630307   -0.92318302    1.18271995
 C         -2.85560703    2.92212510   -0.08499000
 C         -1.42604101    2.31867599   -0.18062000
 C         -3.87439799    1.78059399   -0.17198899
 C         -3.71819592    0.88963199    1.06327701
 C         -2.22924709    0.45733199    1.17117202
 N         -1.55990100    0.86349797   -0.07063300
 H         -2.99834490    3.63297606   -0.90066099
 H         -0.95573002    2.53461409   -1.13836300
 H         -4.88720512    2.18448496   -0.21973200
 H         -4.00393581    1.42794502    1.96855295
 H         -2.12911510   -0.62161702    1.26948404
 H         -2.97260094    3.45944309    0.85830200
 H         -0.77568197    2.66176891    0.62301201
 C         -3.58122611    0.94294798   -1.42120099
 H         -4.35500813    0.00708100    0.97591698
 H         -1.71868706    0.95037597    1.99804294
 C         -2.18716407    0.27232799   -1.25832105
 H         -3.58509207    1.57689703   -2.31020093
 H         -4.33923578    0.16888300   -1.55223501
 H         -1.54143000    0.46403500   -2.11322904
 H         -2.26396394   -0.80105299   -1.09161794
 O          3.09728289    1.57518005    2.49294710
 O          4.58246183    0.42448300    1.27805901
 C          5.16620398    1.02393699    3.52318406
 C          4.22697496    1.00352597    2.32465792
 H          6.18634510    0.78029299    3.22639990
 H          4.82286501    0.27673301    4.24500322
 H          5.13946104    1.99739897    4.01579523
