55
wb97x-d4 ma-def2-tzvp(-f) cpcm(dmso) E: -1285.235356559222, G: -1284.81580606
 C          0.92854601   -2.20356488    0.53324002
 C          1.41140401   -0.85562003    1.06926298
 O          0.85275698   -0.60007900    2.34690309
 C          1.11768997    0.25009501    0.05638400
 O          1.56556702    1.49895799    0.38822600
 C          1.57973099   -0.14085600   -1.34957004
 C          1.05161095   -1.51406097   -1.74677205
 C          1.63316500   -1.97474396   -3.06432199
 O          0.98013902   -3.18199801   -3.45403504
 O          1.43659699   -2.46775389   -0.75165099
 O          1.14413202    0.81392002   -2.30398703
 O         -0.47511101   -2.16218805    0.56638199
 H         -0.03916500   -1.48496604   -1.82958496
 H          1.29661095   -3.02002001    1.16345501
 H         -0.06705600    0.34485200   -0.03357100
 H          2.67819405   -0.18143800   -1.32284498
 C         -1.09537303   -3.42642593    0.33415100
 H         -0.05806200   -0.92259902    2.32761908
 H          1.47412598   -1.19038701   -3.80949712
 H          2.71086311   -2.13669610   -2.94314599
 H          1.48415995    1.67180204   -2.01806688
 H          2.20431590    1.50456798    1.21023095
 H          1.35943103   -3.46491599   -4.29330778
 H         -2.16479707   -3.28442001    0.48662001
 H         -0.71751797   -4.17213917    1.04113603
 H         -0.91272199   -3.76649308   -0.68864900
 H          2.49622607   -0.90316302    1.19463801
 C         -3.49375701    1.45462298    1.21565902
 C         -2.12625003    0.71572900    1.20915604
 C         -3.82940197    1.86438894   -0.22124401
 C         -3.72985792    0.62844002   -1.12207401
 C         -2.24739408    0.16216899   -1.16166997
 N         -1.53164005    0.90630198   -0.11901600
 H         -3.43762589    2.33674788    1.85664403
 H         -1.44038200    1.12513101    1.95007896
 H         -4.83563709    2.28433204   -0.26836699
 H         -4.36158991   -0.17286700   -0.73348999
 H         -1.77137601    0.38878599   -2.11465812
 H         -4.25841999    0.78879201    1.61913705
 H         -2.24109411   -0.35528499    1.36819005
 C         -2.80216908    2.90242910   -0.68335497
 H         -4.05935812    0.85968602   -2.13640189
 H         -2.15016508   -0.90062797   -0.94894499
 C         -1.37555802    2.32509398   -0.45567101
 H         -2.90923595    3.82967806   -0.11819500
 H         -2.94377804    3.13050508   -1.74178803
 H         -0.86220002    2.80792594    0.37416601
 H         -0.76170301    2.39707088   -1.35082805
 O          3.14644003    1.66876101    2.33262992
 O          4.59152794    0.36361700    1.23066902
 C          5.16864920    1.09793997    3.43836689
 C          4.24832296    1.03245699    2.22685003
 H          4.73747206    0.48850700    4.23798990
 H          5.23917294    2.12318611    3.80690908
 H          6.16154385    0.71682000    3.20001698
