55
wb97x-d4 ma-def2-tzvp(-f) cpcm(dmso) E: -1285.232820620211, G: -1284.81117281
 C          0.23395300   -2.70516992    0.34138101
 C          0.50362998   -1.71720803    1.47732604
 O         -0.50281399   -1.74078000    2.47142696
 C          0.63206297   -0.30496901    0.92843002
 O          0.99309099    0.60802400    1.89644504
 C          1.52669299   -0.22452401   -0.29296899
 C          1.42849696   -1.40371704   -1.25951600
 C          2.73593497   -1.50738895   -2.05916810
 O          3.23128390   -0.23269200   -2.46032810
 O          1.29887700   -2.65712309   -0.58644301
 O          1.21090806    0.99096799   -0.96374100
 O         -0.99910700   -2.39547396   -0.23463100
 H          0.57239199   -1.24465406   -1.92273498
 H          0.23321100   -3.73344707    0.72169101
 H         -0.47585601    0.00333700    0.55740702
 H          2.55179191   -0.17962199    0.09011100
 C         -1.44041896   -3.36288500   -1.18463600
 H         -0.35324299   -2.50940609    3.03385401
 H          3.47066402   -2.01660490   -1.42628503
 H          2.58073092   -2.10488701   -2.95946503
 H          1.83784401    1.06156003   -1.69809699
 H          1.82714903    1.07403195    1.61952198
 H          3.72769094    0.15443000   -1.70681095
 H         -0.80118603   -3.36501598   -2.07184505
 H         -2.45512390   -3.08453488   -1.46868801
 H         -1.44583297   -4.36293507   -0.73777401
 H          1.47696602   -1.98424006    1.90700698
 C         -2.91296101    2.81168294    0.50310302
 C         -1.54755902    2.08152294    0.60856700
 C         -3.88376594    1.91166401   -0.26973701
 C         -4.17818785    0.66929501    0.57751697
 C         -2.82792902    0.05047500    1.02929294
 N         -1.77148294    0.68222100    0.22420099
 H         -2.77002907    3.76338196   -0.01168500
 H         -0.80478501    2.49103904   -0.07367300
 H         -4.80774117    2.45063210   -0.48604599
 H         -4.76526308    0.93083298    1.45973098
 H         -2.78293705   -1.02264202    0.86110002
 H         -3.30599904    3.02111602    1.50027895
 H         -1.14695799    2.09528208    1.62148798
 C         -3.20907807    1.46846700   -1.57266903
 H         -4.74754000   -0.05792600   -0.00550300
 H         -2.61069393    0.25894701    2.07578397
 C         -2.01811290    0.53796399   -1.21944106
 H         -2.85250497    2.33944011   -2.12719893
 H         -3.91094589    0.92554998   -2.20819712
 H         -1.10631096    0.81203598   -1.74498796
 H         -2.24571109   -0.50838399   -1.40859497
 O          3.41670299    1.68544400    1.48314500
 O          4.53916979    0.94801003   -0.32020500
 C          5.79794598    1.74982297    1.53263605
 C          4.47551298    1.44346404    0.83735800
 H          6.15901518    0.82775801    1.99874604
 H          5.67029905    2.50122905    2.31229401
 H          6.54805708    2.07660508    0.81123000
