55
wb97x-d4 ma-def2-tzvp(-f) cpcm(dmso) E: -1285.247502659879, G: -1284.8254590000001
 C          0.08152600   -3.13192797    0.30286601
 C          0.52544200   -2.22304797    1.44420600
 O         -0.42504501   -2.23062706    2.49548793
 C          0.82706898   -0.81844503    0.92645299
 O          1.28634095   -0.02678900    1.94933105
 C          1.71930301   -0.83359301   -0.31714100
 C          1.21718705   -1.84641004   -1.34526896
 C          2.17528391   -2.02737808   -2.51013303
 O          3.48390293   -2.43297291   -2.11472797
 O          1.02122402   -3.13011789   -0.74307799
 O          1.76002097    0.43597099   -0.92636400
 O         -1.18605995   -2.67798090   -0.09706600
 H          0.26914501   -1.48850000   -1.76181996
 H          0.02151900   -4.17218399    0.64019501
 H         -0.20174199   -0.35644299    0.55374497
 H          2.71978402   -1.13751900    0.02047500
 C         -1.84567201   -3.55163002   -1.01259995
 H         -1.30207801   -2.23074508    2.08990407
 H          1.78277302   -2.81559491   -3.15639210
 H          2.21300912   -1.09690297   -3.08146191
 H          2.57957697    0.91359502   -0.61427897
 H          1.77269197    0.79366398    1.63464904
 H          3.99342608   -1.64682400   -1.88931203
 H         -1.31371498   -3.58853292   -1.96687496
 H         -2.84559894   -3.14755988   -1.16739094
 H         -1.91561699   -4.56105614   -0.59407902
 H          1.45614803   -2.62605810    1.85403895
 C         -1.97519505    2.98948693    0.34354001
 C         -0.88153797    1.93387997    0.67768002
 C         -3.23101997    2.25887704   -0.14193200
 C         -3.65795493    1.24574995    0.92446798
 C         -2.53035212    0.18504100    1.08013904
 N         -1.39764404    0.62780100    0.26103899
 H         -1.60882998    3.66638899   -0.43070301
 H          0.04672600    2.11381412    0.13952801
 H         -4.03472614    2.97552299   -0.32013401
 H         -3.82711005    1.74867201    1.87855399
 H         -2.83825588   -0.79472798    0.71847999
 H         -2.19377089    3.57947993    1.23513997
 H         -0.67415798    1.88469398    1.74577999
 C         -2.90107799    1.50772095   -1.43617105
 H         -4.58394814    0.74696797    0.63365501
 H         -2.19024396    0.10459000    2.11211491
 C         -1.68749702    0.56870401   -1.17519498
 H         -2.64897704    2.20912790   -2.23329306
 H         -3.76103401    0.91846198   -1.76032698
 H         -0.79321200    0.89170301   -1.70475304
 H         -1.90991998   -0.46567100   -1.43148506
 O          2.62109399    2.18905497    1.63338995
 O          3.90533090    1.70782995   -0.13035800
 C          4.63327599    3.42863202    1.36607397
 C          3.64743495    2.36162400    0.91841400
 H          5.06241179    3.13585210    2.32790494
 H          4.10631084    4.37354422    1.51552498
 H          5.43403816    3.56279397    0.63956398
