55
wb97x-d4 ma-def2-tzvp(-f) cpcm(dmso) E: -1285.246664346136, G: -1284.8253423200001
 C          0.85391700   -2.64332294    0.26507100
 C          1.68243504   -1.41130400    0.61805099
 O          1.39478099   -1.02164900    1.93412197
 C          1.43899298   -0.30834600   -0.41592300
 O          2.20749307    0.81896299   -0.27031901
 C          1.57904100   -0.82059902   -1.84440804
 C          0.78153098   -2.10437202   -2.05659294
 C          1.08611798   -2.72541404   -3.40175700
 O          0.18065700   -3.80690193   -3.61961198
 O          1.13492501   -3.06115007   -1.05595100
 O          1.12321401    0.14869300   -2.77748489
 O         -0.49881399   -2.34067702    0.45103100
 H         -0.28922400   -1.88299501   -1.99965298
 H          1.14556301   -3.48762608    0.89936203
 H          0.29506901    0.02457300   -0.28514501
 H          2.64449811   -1.03692806   -2.00827289
 C         -1.35175705   -3.47725701    0.33384699
 H          2.11454892   -0.43118301    2.27718401
 H          0.97127998   -1.96157396   -4.17587519
 H          2.12374496   -3.08017206   -3.40506196
 H          1.64706302    0.94792199   -2.64036202
 H          2.12113309    1.24529004    0.64780498
 H          0.36428899   -4.17595911   -4.49044323
 H         -1.37316203   -3.85140705   -0.69357401
 H         -2.35096908   -3.15189195    0.62309003
 H         -1.01753199   -4.27659512    1.00414002
 H          2.73690701   -1.70475304    0.51542699
 C         -2.52837706    1.74226296    1.55783606
 C         -1.34516001    0.76489902    1.31722105
 C         -3.04653502    2.22723389    0.20010400
 C         -3.35554695    1.00774503   -0.67296600
 C         -2.02442408    0.26499599   -0.97579002
 N         -0.99405599    0.84880900   -0.10751000
 H         -2.19436407    2.59089899    2.15871596
 H         -0.46276900    1.03165901    1.89531398
 H         -3.94527888    2.83206296    0.33291101
 H         -4.04551220    0.33867300   -0.15451200
 H         -1.70247400    0.40330300   -2.00706792
 H         -3.31562805    1.22500598    2.10929394
 H         -1.61040902   -0.26890400    1.52638197
 C         -1.94904602    3.05520105   -0.47600400
 H         -3.81887794    1.31256795   -1.61301303
 H         -2.09042406   -0.79804701   -0.75476402
 C         -0.64045203    2.21516705   -0.50686598
 H         -1.76857996    3.98033905    0.07405800
 H         -2.24666595    3.31726909   -1.49344397
 H          0.10018900    2.58591795    0.19968200
 H         -0.20405500    2.17763209   -1.50329196
 O          2.04975605    2.17967010    1.89929795
 O          3.14559698    0.62368798    3.06600189
 C          3.05502892    2.83661294    3.96101093
 C          2.72151494    1.79902506    2.90277696
 H          2.32783198    3.64871693    3.95326996
 H          4.03998709    3.25513101    3.73297405
 H          3.10299301    2.37909889    4.94968414
