26
wb97x-d4 ma-def2-tzvp(-f) cpcm(dmso) E: -726.362292429651, G: -726.18640016
 C         -1.24594402   -0.01821300    0.06002100
 C         -0.71311897   -1.41944599   -0.04022100
 O         -0.49587601    0.88923103    0.76700598
 C         -2.70743203    0.22620600    0.19216400
 C          0.90574402    0.91290897    0.50415897
 C          1.50101995   -0.48672199    0.61123198
 H          1.31876099    1.57756102    1.26915002
 O          1.18335199    1.39628196   -0.77306497
 C          0.77776498   -1.43073106   -0.33994401
 H          1.37028205   -0.83863997    1.63745296
 O          2.89809990   -0.46537301    0.36376801
 O          1.23361802   -2.76986003   -0.18586200
 H          0.93321699   -1.09714699   -1.37235606
 O         -1.45504403   -2.10864902   -1.03979194
 H         -0.85624200   -1.92268598    0.93127102
 H         -2.91356611    1.28989398    0.03627300
 O         -3.23178101   -0.19337100    1.47014499
 H         -3.24688101   -0.35367799   -0.55518699
 H         -2.84449196    0.37464601    2.14667296
 H         -1.19072795   -3.03579998   -1.00417805
 H          2.17908907   -2.78046894   -0.37975699
 C          0.93287200    2.79546905   -0.92104799
 H          1.48083997    3.36187100   -0.16084500
 H         -0.13576300    3.00928998   -0.83821702
 H          1.28530705    3.07563210   -1.91269004
 H          3.03690195    0.01179500   -0.46615499
