26
wb97x-d4 ma-def2-tzvp(-f) cpcm(dmso) E: -726.361940646004, G: -726.185955
 C         -1.22423995    0.06007500    0.07748700
 C         -0.72495103   -1.35248196   -0.03087300
 O         -0.46485701    0.93056500    0.81844097
 C         -2.68122101    0.34742799    0.14842001
 C          0.93938297    0.92930102    0.56862003
 C          1.50535202   -0.48485500    0.64287603
 H          1.35833001    1.56428599    1.35539103
 O          1.24008298    1.44070899   -0.69226903
 C          0.76480401   -1.39229405   -0.32996401
 H          1.36703801   -0.85879201    1.66036105
 O          2.90262794   -0.48653299    0.39559901
 O          1.18901396   -2.74422693   -0.20107900
 H          0.92983699   -1.04217601   -1.35548103
 O         -1.48328900   -2.02007508   -1.03210700
 H         -0.87608802   -1.85993397    0.93818903
 H         -2.84015894    1.42460096    0.07637900
 O         -3.27272606   -0.05425000    1.40520203
 H         -3.19822598   -0.14450900   -0.67799598
 H         -3.35869002   -1.01465201    1.39625502
 H         -1.22197199   -2.94865990   -1.01606095
 H          2.13191605   -2.77497101   -0.40449101
 C          1.02670705    2.84939694   -0.80168802
 H          1.39095294    3.14771795   -1.78380501
 H          1.58579898    3.37942410   -0.02342300
 H         -0.03651200    3.08844399   -0.71684301
 H          3.05108500    0.01646100   -0.41713801
