26
wb97x-d4 ma-def2-tzvp(-f) cpcm(dmso) E: -726.35996671207, G: -726.18454888
 C         -1.14479697   -0.02968000    0.11883800
 C         -0.61852199   -1.42949498   -0.07961800
 O         -0.39348000    0.83227801    0.87840199
 C         -2.60333610    0.21782000    0.21541400
 C          0.99832499    0.88753301    0.57003301
 C          1.60333097   -0.51008499    0.56780899
 H          1.43205595    1.50514400    1.36247301
 O          1.22844005    1.45442200   -0.68164003
 C          0.86429101   -1.41772795   -0.40961599
 H          1.51210797   -0.92439801    1.57492304
 O          2.99178910   -0.46325001    0.27598801
 O          1.35956597   -2.74793601   -0.32013100
 H          0.99455899   -1.03525901   -1.42922103
 O         -1.31432605   -2.09457302   -1.12922394
 H         -0.74234998   -1.99557495    0.85715598
 H         -2.78566909    1.29693305    0.22535001
 O         -3.11424494   -0.38225201    1.42808998
 H         -3.10681391   -0.21933900   -0.65131098
 H         -4.07255411   -0.27293199    1.42484498
 H         -2.10606289   -2.50238800   -0.76167899
 H          2.30896401   -2.70913196   -0.49136001
 C          0.94985098    2.85500908   -0.73406202
 H         -0.11987100    3.04268098   -0.61153400
 H          1.27210903    3.20334911   -1.71429205
 H          1.50681102    3.38276911    0.04721900
 H          3.09982800    0.05608700   -0.53285098
