26
wb97x-d4 ma-def2-tzvp(-f) cpcm(dmso) E: -726.361811880352, G: -726.18425943
 C         -1.13402104   -0.17732400    0.58791500
 C         -0.64608097   -1.57183301    0.33995199
 O         -0.45912200    0.86468297    0.01693200
 C         -2.59779096    0.06073500    0.71039999
 C          0.97533101    0.80685598    0.05360100
 C          1.50291598   -0.53737003   -0.42743900
 H          1.29210901    0.99252999    1.08634996
 O          1.45545197    1.78065801   -0.80604702
 C          0.88170701   -1.66526604    0.38786000
 H          2.58889794   -0.53980601   -0.28855199
 O          1.16580200   -0.76150298   -1.79204702
 O          1.36379802   -1.51113605    1.71560597
 H          1.19233894   -2.62534404   -0.03695100
 O         -1.14827204   -2.07399011   -0.92028397
 H         -1.06842005   -2.23166394    1.10135198
 H         -3.01922107   -0.67303199    1.40645099
 O         -3.28430295   -0.01684600   -0.55803198
 H         -2.78915310    1.06336796    1.09727001
 H         -2.96909904   -0.82566899   -0.98531097
 H         -0.62669897   -1.63950896   -1.61379004
 H          1.05447400   -2.25956106    2.23933101
 C          1.25502706    3.11823297   -0.33838001
 H          1.68228495    3.23520303    0.66270298
 H          0.19204800    3.36856890   -0.31714100
 H          1.77197897    3.77388191   -1.03744400
 H          1.36801803    0.04513600   -2.28430390
