26
wb97x-d4 ma-def2-tzvp(-f) cpcm(dmso) E: -726.360085678415, G: -726.18423809
 C         -1.20243502    0.03160000    0.17250200
 C         -0.70839500   -1.37989604   -0.02268400
 O         -0.38536400    0.92453098    0.81545502
 C         -2.64896011    0.29218501    0.40748599
 C          0.98726702    0.92519301    0.41323900
 C          1.54627204   -0.49025699    0.52032501
 H          1.47841406    1.59956503    1.12302899
 O          1.13353896    1.38317394   -0.89027399
 C          0.76818502   -1.42356503   -0.39281499
 H          1.41775298   -0.81851703    1.55746901
 O          2.91535592   -0.54992598    0.14961500
 O          1.22701395   -2.76173806   -0.25477499
 H          0.88782603   -1.09049106   -1.43095505
 O         -1.51776803   -2.07744408   -0.96133602
 H         -0.82247198   -1.93800700    0.91826600
 H         -2.83456302    1.36647201    0.35891700
 O         -3.09141994   -0.12414000    1.71853495
 H         -3.24738193   -0.20573300   -0.35850200
 H         -3.16400909   -1.08563805    1.71450698
 H         -1.48439705   -1.59380698   -1.79678595
 H          2.18252707   -2.74445200   -0.39355800
 C          0.82969600    2.77067709   -1.03681695
 H          1.42261899    3.36682296   -0.33440000
 H         -0.23385800    2.95869708   -0.86729801
 H          1.08961403    3.04408097   -2.05878806
 H          3.45494199   -0.37938699    0.92964602
