26
wb97x-d4 ma-def2-tzvp(-f) cpcm(dmso) E: -726.360256278792, G: -726.1836842
 C         -1.20099199   -0.31497300    0.19929001
 C         -0.60699999   -1.68464398    0.14033300
 O         -0.49663100    0.73144102   -0.32663101
 C         -2.67475700   -0.11098000    0.17431501
 C          0.90235603    0.78282201   -0.00849900
 C          1.59169996   -0.54796398   -0.27530900
 H          0.99592900    1.05612600    1.04906595
 O          1.48564804    1.73240399   -0.83048397
 C          0.88684100   -1.66732395    0.48293701
 H          2.62632108   -0.46601999    0.07420800
 O          1.54856801   -0.87679797   -1.65921700
 O          1.09586298   -1.40896595    1.86493099
 H          1.32695603   -2.62624311    0.19032700
 O         -0.81937599   -2.29987407   -1.14672303
 H         -1.12863505   -2.32448411    0.85591000
 H         -3.00721192    0.21634400   -0.81701601
 O         -3.11223292    0.91766298    1.07581103
 H         -3.16859293   -1.06102204    0.40392500
 H         -2.79368496    0.68379003    1.95612895
 H         -0.22512101   -1.84999597   -1.76637900
 H          0.72244197   -2.14142394    2.36911106
 C          1.12264395    3.07934308   -0.51512802
 H          1.34351897    3.29272604    0.53570801
 H          0.06272500    3.25369501   -0.71333599
 H          1.72588205    3.72192907   -1.15497899
 H          1.79683900   -0.08757200   -2.15829802
