26
wb97x-d4 ma-def2-tzvp(-f) cpcm(dmso) E: -726.360991570106, G: -726.18338875
 C         -1.07711303   -0.26543599    0.88154501
 C         -0.60168600   -1.28548300   -0.10013700
 O         -0.35649401    0.89173502    1.04302394
 C         -2.53197002   -0.09331200    1.13284802
 C          0.94959402    0.91148001    0.47961000
 C          1.64973402   -0.41994199    0.71122402
 H          1.47164500    1.72514200    0.98919499
 O          0.91019100    1.14896297   -0.90177900
 C          0.91696298   -1.55196202   -0.00648600
 H          1.61650205   -0.61916798    1.78479898
 O          3.01982093   -0.34202099    0.35979101
 O          1.20448899   -2.74208498    0.72123402
 H          1.30123103   -1.63465500   -1.02880704
 O         -0.99749398   -0.92783803   -1.44517100
 H         -1.12435102   -2.22093296    0.10457600
 H         -2.98858094   -1.07640302    1.28697205
 O         -3.19666409    0.59677303    0.05187700
 H         -2.69618392    0.51520699    2.02413297
 H         -2.91881204    0.16147400   -0.76578498
 H         -0.48397899   -0.13960500   -1.67961097
 H          0.92566103   -3.49740005    0.18938699
 C          0.54773599    2.49315000   -1.24058402
 H          1.22229600    3.19902611   -0.74710500
 H         -0.48414800    2.70041394   -0.94722199
 H          0.64740902    2.58131409   -2.32124710
 H          3.07420492   -0.10843400   -0.57628000
