26
wb97x-d4 ma-def2-tzvp(-f) cpcm(dmso) E: -726.361320999994, G: -726.18329688
 C         -1.03230596   -0.23641901    0.54495502
 C         -0.44623801   -1.59571302    0.32226199
 O         -0.44312900    0.83115703   -0.06656500
 C         -2.51026106   -0.10847500    0.66287202
 C          0.99939603    0.87475997   -0.02271200
 C          1.60690498   -0.43089300   -0.52272397
 H          1.28450799    1.03736603    1.02371502
 O          1.41049898    1.92460203   -0.81908000
 C          1.08392203   -1.58229995    0.33923599
 H          2.68972301   -0.35436499   -0.39840701
 O          1.34474897   -0.65643197   -1.89636803
 O          1.57595503   -1.37967396    1.65639305
 H          1.44937098   -2.52690291   -0.07668600
 O         -0.83257502   -2.10979104   -0.98032302
 H         -0.81502402   -2.27571893    1.09760499
 H         -2.88019896   -0.80072403    1.42073298
 O         -3.18623304   -0.48484901   -0.56678301
 H         -2.78681707    0.91148001    0.94158900
 H         -3.05374098    0.22772700   -1.20465505
 H         -1.75339699   -1.83670402   -1.12367296
 H          1.34660697   -2.15075588    2.18836498
 C          1.15676296    3.20853591   -0.24228500
 H          0.08321000    3.39602304   -0.16147999
 H          1.60617399    3.94482994   -0.90737200
 H          1.61715806    3.27847910    0.74880999
 H          0.48498201   -1.10524499   -1.95742404
