26
wb97x-d4 ma-def2-tzvp(-f) cpcm(dmso) E: -726.360236216163, G: -726.18320843
 C         -1.13989699   -0.06603100    0.37583101
 C         -0.61006403   -1.46795797    0.21100000
 O         -0.32451800    0.86602598    0.96257597
 C         -2.57485509    0.13554800    0.75244099
 C          1.03005898    0.90385997    0.51357400
 C          1.65093696   -0.48662499    0.56083798
 H          1.52844095    1.58502400    1.21026504
 O          1.12742102    1.37174797   -0.79379302
 C          0.83015501   -1.46610606   -0.26906401
 H          1.66537797   -0.82090700    1.60121596
 O          3.00204110   -0.45488900    0.12774000
 O          1.35022402   -2.78442907   -0.14205299
 H          0.84846199   -1.15503895   -1.32000005
 O         -1.40059197   -2.23028398   -0.69738501
 H         -0.62933302   -1.96022403    1.20012999
 H         -2.81558394   -0.40143800    1.67921102
 O         -3.47259998   -0.39781499   -0.23298199
 H         -2.75922894    1.20077395    0.91756302
 H         -3.39678597    0.14849600   -1.02568996
 H         -2.30362511   -1.87617695   -0.66620201
 H          2.28213191   -2.74542189   -0.39228100
 C          0.82539999    2.76232791   -0.92702401
 H         -0.22991200    2.95166206   -0.71491802
 H          1.04590797    3.03468609   -1.95816803
 H          1.44859505    3.35298610   -0.24736699
 H          3.02184296    0.00020400   -0.72545999
