26
wb97x-d4 ma-def2-tzvp(-f) cpcm(dmso) E: -726.360888960028, G: -726.18317559
 C         -1.12371099   -0.26107499    0.85793197
 C         -0.67039102   -1.28696704   -0.12926701
 O         -0.39322299    0.88976097    1.01598704
 C         -2.57519794   -0.08078400    1.12318599
 C          0.92400998    0.88201803    0.47642899
 C          1.57527399   -0.47235900    0.71770799
 H          1.45596099    1.68121696    0.99925798
 O          0.91281998    1.12251496   -0.90359002
 C          0.84142202   -1.56132102   -0.06607800
 H          1.48759305   -0.68988699    1.78462601
 O          2.96217990   -0.44725299    0.42581800
 O          1.03804195   -2.83810210    0.53413898
 H          1.22282398   -1.57278395   -1.09292495
 O         -1.09053802   -0.92840201   -1.46682000
 H         -1.19208300   -2.21991801    0.08686300
 H         -3.03513694   -1.06123602    1.28475499
 O         -3.24798894    0.60855299    0.04682900
 H         -2.72704792    0.53125501    2.01421690
 H         -2.97468495    0.17312101   -0.77235001
 H         -0.57005799   -0.15037200   -1.71746802
 H          1.98789096   -3.00963712    0.55943102
 C          0.58842403    2.47565699   -1.24413705
 H          0.70835298    2.56464791   -2.32273197
 H          1.27095401    3.16405201   -0.73681903
 H         -0.44314799    2.70690489   -0.96750200
 H          3.06745911   -0.21960500   -0.50748903
