26
wb97x-d4 ma-def2-tzvp(-f) cpcm(dmso) E: -726.359996707447, G: -726.18316943
 C         -1.19573605    0.02035200    0.35661799
 C         -0.69819999   -1.39287305    0.19891500
 O         -0.37368101    0.93789399    0.96042502
 C         -2.64178991    0.24486101    0.67803502
 C          0.99599499    0.92408597    0.56502903
 C          1.57132006   -0.48438901    0.65782797
 H          1.49256098    1.59964800    1.26834297
 O          1.16076100    1.36620200   -0.74613398
 C          0.76503903   -1.44504595   -0.20887400
 H          1.51697600   -0.80969000    1.69968903
 O          2.94386411   -0.49900401    0.29921499
 O          1.23144698   -2.77831197   -0.05425200
 H          0.85300100   -1.13538599   -1.25860202
 O         -1.53975797   -2.12091208   -0.69694102
 H         -0.79786098   -1.91514099    1.16207898
 H         -2.94218493   -0.39353400    1.52403200
 O         -3.51413989    0.00876800   -0.43046999
 H         -2.77750993    1.28559899    0.97564399
 H         -3.33846402   -0.89348501   -0.72843099
 H         -1.36404300   -1.80189300   -1.59253705
 H          2.17492199   -2.77483296   -0.26032200
 C          0.90665197    2.76283598   -0.91275102
 H          1.17357099    3.01176596   -1.93877494
 H          1.52155197    3.34603596   -0.21931900
 H         -0.14949600    2.98777008   -0.74408299
 H          3.02520490   -0.05131900   -0.55436200
