26
wb97x-d4 ma-def2-tzvp(-f) cpcm(dmso) E: -726.359826115642, G: -726.18308841
 C         -1.21709800   -0.17616700    0.88479501
 C         -0.68532598   -1.56510699    0.72193098
 O         -0.30350801    0.74119198    1.35745597
 C         -2.40940189    0.35778400    0.18139599
 C          0.90832502    0.84213799    0.60671198
 C          1.55598903   -0.52845198    0.41885999
 H          1.55197001    1.50207901    1.19381797
 O          0.66551697    1.38905001   -0.65908903
 C          0.56344801   -1.53168797   -0.15815200
 H          1.87914300   -0.88337600    1.40071297
 O          2.72495508   -0.43315801   -0.37857601
 O          1.11019397   -2.84419608   -0.17246400
 H          0.27640599   -1.23242295   -1.17354405
 O         -1.69231403   -2.39867091    0.17370100
 H         -0.37555200   -1.94413495    1.70862496
 H         -3.23849201   -0.34692100    0.24166501
 O         -2.16995907    0.56566298   -1.23002005
 H         -2.70478797    1.30228102    0.65024102
 H         -1.27757800    0.93046498   -1.31598198
 H         -1.29447901   -3.26657295    0.03160000
 H          1.88540697   -2.83565688   -0.74727398
 C          0.47529301    2.81067991   -0.63289899
 H          0.32685000    3.12573409   -1.66485202
 H          1.36080897    3.29987097   -0.21765800
 H         -0.40494400    3.06962109   -0.03836100
 H          2.48913288    0.04996500   -1.18264103
