26
wb97x-d4 ma-def2-tzvp(-f) cpcm(dmso) E: -726.360775734132, G: -726.18295454
 C         -1.11563301   -0.21874499    0.60643297
 C         -0.65916800   -1.61882699    0.31714299
 O         -0.44095600    0.81775200    0.02709700
 C         -2.57312894    0.04220900    0.76655698
 C          0.99506301    0.74761301    0.04377700
 C          1.50530696   -0.60194898   -0.43969899
 H          1.32396698    0.93622702    1.07380700
 O          1.47351301    1.71797705   -0.81786603
 C          0.86498702   -1.73177695    0.36818099
 H          2.59037900   -0.62117100   -0.29541701
 O          1.17088199   -0.81227398   -1.80801702
 O          1.34051704   -1.71590304    1.70724797
 H          1.16686201   -2.68771005   -0.06393900
 O         -1.17206299   -2.06631994   -0.95666200
 H         -1.09010196   -2.29180694    1.06064105
 H         -2.99377203   -0.70227301    1.45140803
 O         -3.28084707    0.01174400   -0.49053201
 H         -2.73737597    1.03752506    1.18342805
 H         -2.98849893   -0.78950500   -0.94733000
 H         -0.63680500   -1.62743902   -1.63724196
 H          0.83686900   -1.06876898    2.21812510
 C          1.28454900    3.05740094   -0.34854501
 H          0.22325400    3.31357002   -0.32000500
 H          1.80069804    3.70926905   -1.05156004
 H          1.71971202    3.17128992    0.64941400
 H          1.39178801   -0.00811100   -2.29644489
