26
wb97x-d4 ma-def2-tzvp(-f) cpcm(dmso) E: -726.361169921799, G: -726.18548572
 C         -1.22600901   -0.15328000    0.22411600
 C         -0.64542502   -1.53621399    0.21141300
 O         -0.49096200    0.82150400    0.85626900
 C         -2.69111490    0.06962400    0.38156900
 C          0.88772500    0.90154803    0.50075799
 C          1.56082702   -0.45881000    0.65387303
 H          1.30987597    1.63343501    1.19662297
 O          1.06007397    1.31474102   -0.81848103
 C          0.82577801   -1.50202298   -0.17872401
 H          1.52006996   -0.74594301    1.70747995
 O          2.93438292   -0.38776901    0.30561301
 O          1.35415101   -2.80477500    0.04061100
 H          0.90078700   -1.23977697   -1.24020898
 O         -1.40579295   -2.33819294   -0.68363702
 H         -0.70859897   -1.96486402    1.22743702
 H         -3.23802304   -0.71205002   -0.14334100
 O         -3.11422992    1.32213902   -0.16498400
 H         -2.96454811    0.02194300    1.44839597
 H         -2.61012006    2.01581812    0.27713299
 H         -1.07093298   -3.24019504   -0.61242503
 H          2.27142000   -2.80311990   -0.25899601
 C          0.70059901    2.67974591   -1.04048002
 H          0.98731202    2.91854501   -2.06373310
 H          1.23849905    3.33242106   -0.34464800
 H         -0.37616301    2.82195902   -0.91862702
 H          2.99041796    0.03359100   -0.56300497
