26
wb97x-d4 ma-def2-tzvp(-f) cpcm(dmso) E: -726.359933275874, G: -726.18289767
 C         -1.05268204   -0.17746601    0.85996598
 C         -0.48749799   -1.54671800    0.64718503
 O         -0.19675700    0.81110698    1.26934004
 C         -2.44525003    0.19506200    0.52208698
 C          1.03887498    0.89924002    0.55569702
 C          1.74492705   -0.45424101    0.47165599
 H          1.63906801    1.61527002    1.12441003
 O          0.83511198    1.34779799   -0.74905998
 C          0.81877100   -1.48770702   -0.15317200
 H          1.99945402   -0.77122098    1.48630905
 O          2.97056890   -0.31670001   -0.22568400
 O          1.47294104   -2.74835205   -0.14664000
 H          0.58343601   -1.18989599   -1.18307197
 O         -1.42396498   -2.41550994    0.02221000
 H         -0.24955601   -2.01066995    1.61488795
 H         -3.16258097   -0.49815100    0.96569002
 O         -2.69444704    0.11192600   -0.90546501
 H         -2.65308189    1.20415199    0.88796198
 H         -2.10262704    0.73797601   -1.34169304
 H         -1.81520605   -1.93496704   -0.72255898
 H          0.85094398   -3.39261699   -0.50765097
 C          0.45861399    2.72404504   -0.82706100
 H         -0.53381199    2.88035297   -0.39578399
 H          0.44343701    2.98715401   -1.88385999
 H          1.18890405    3.34835792   -0.30191401
 H          2.77241206    0.08177500   -1.08378601
