26
wb97x-d4 ma-def2-tzvp(-f) cpcm(dmso) E: -726.360272035088, G: -726.18283814
 C         -1.03199399   -0.28758401    0.88719797
 C         -0.63483101   -1.29068601   -0.14693500
 O         -0.29866800    0.86478603    1.01787603
 C         -2.46330094   -0.11775900    1.25197804
 C          0.98245698    0.87089097    0.39842400
 C          1.66148698   -0.48075899    0.57784998
 H          1.54197395    1.66639805    0.89708197
 O          0.88706398    1.12879801   -0.97593802
 C          0.88475299   -1.57086396   -0.16633999
 H          1.64812195   -0.70501399    1.64822197
 O          3.02474499   -0.42348501    0.19969399
 O          1.20409799   -2.86060810    0.34204999
 H          1.20467305   -1.58411598   -1.21026504
 O         -1.12302494   -0.90405798   -1.45345294
 H         -1.14761698   -2.22711301    0.07580100
 H         -2.91338992   -1.10325098    1.40962696
 O         -3.20199108    0.60973001    0.24724700
 H         -2.55545807    0.46300900    2.17169905
 H         -2.99012089    0.20017500   -0.60272700
 H         -0.61415499   -0.12146900   -1.71412098
 H          0.96703398   -2.88896608    1.27796602
 C          0.53810799    2.48437810   -1.28161705
 H         -0.47698501    2.70744991   -0.94432801
 H          0.59604102    2.58587289   -2.36420798
 H          1.24561095    3.17045498   -0.80664599
 H          3.06536794   -0.18621100   -0.73613501
