26
wb97x-d4 ma-def2-tzvp(-f) cpcm(dmso) E: -726.360801833477, G: -726.18282943
 C         -1.15133297   -0.21540700    0.54039001
 C         -0.67538202   -1.61648905    0.28853399
 O         -0.44551000    0.82038403   -0.00190500
 C         -2.61705208    0.04003300    0.60881400
 C          0.98760098    0.75254798    0.09679000
 C          1.52641296   -0.59897703   -0.34905601
 H          1.25725496    0.94680703    1.14282799
 O          1.51298404    1.71930695   -0.74106199
 C          0.84323800   -1.72584295    0.42733201
 H          2.60163212   -0.61524302   -0.14352401
 O          1.26971495   -0.81882602   -1.73249602
 O          1.23983395   -1.70206499    1.79171002
 H          1.17143905   -2.68325496    0.01825300
 O         -1.11467600   -2.07547092   -1.00885105
 H         -1.14700103   -2.28483105    1.01123905
 H         -3.07426190   -0.69616002    1.27897501
 O         -3.24853706   -0.01479600   -0.68731701
 H         -2.81078005    1.04072297    0.99923903
 H         -2.92217803   -0.81945801   -1.11425197
 H         -0.54125398   -1.64298105   -1.66187799
 H          0.70244002   -1.05683601    2.26931405
 C          1.30905998    3.06053209   -0.28379601
 H          1.86395395    3.70798302   -0.96091002
 H          1.69471502    3.17347693    0.73442698
 H          0.24927901    3.32339406   -0.30894500
 H          1.51840603   -0.01855300   -2.21385407
