26
wb97x-d4 ma-def2-tzvp(-f) cpcm(dmso) E: -726.359298283301, G: -726.18281186
 C         -1.13847303   -0.18179300    0.35999799
 C         -0.51596802   -1.54263306    0.19176701
 O         -0.37591800    0.83543903    0.87845701
 C         -2.57877707   -0.02835300    0.70775199
 C          0.94692302    0.96401501    0.35144299
 C          1.66737902   -0.36915901    0.49252099
 H          1.41457701    1.73633099    0.97050601
 O          0.92962098    1.34114003   -0.98508298
 C          0.92841101   -1.44033206   -0.29943499
 H          1.64475703   -0.63520801    1.55859697
 O          3.00534201   -0.21752401    0.05431400
 O          1.61950600   -2.68240905   -0.22608700
 H          0.92785698   -1.16671395   -1.35698700
 O         -1.30651402   -2.36956310   -0.65338302
 H         -0.50466198   -2.06173992    1.16324997
 H         -3.12894511   -0.91004902    0.38275900
 O         -3.18702602    1.09915900    0.06413500
 H         -2.69152689    0.06783800    1.79861903
 H         -2.71602893    1.88915205    0.35504401
 H         -1.39625800   -1.92107201   -1.50465202
 H          1.55267203   -3.02110004    0.67684299
 C          0.46559101    2.67638302   -1.18937504
 H         -0.59464097    2.76581311   -0.93861097
 H          0.61103302    2.90081596   -2.24533606
 H          1.04616702    3.37828708   -0.58094400
 H          3.37490106   -1.10672498   -0.02611100
