26
wb97x-d4 ma-def2-tzvp(-f) cpcm(dmso) E: -726.359098602474, G: -726.18276312
 C         -1.09127700   -0.03682200    0.35970399
 C         -0.50456703   -1.41507804    0.19768000
 O         -0.31542799    0.90877402    0.97818601
 C         -2.54332089    0.11604100    0.68649399
 C          1.03647995    1.00919795    0.51547098
 C          1.70346403   -0.35813901    0.59030497
 H          1.50848997    1.71516800    1.20601106
 O          1.09022796    1.48013794   -0.78993499
 C          0.94250000   -1.35111296   -0.27085999
 H          1.64891195   -0.68613201    1.63649702
 O          3.05508995   -0.22799499    0.18746699
 O          1.59916496   -2.60829711   -0.13255100
 H          0.96765399   -1.02776599   -1.31541598
 O         -1.24353099   -2.21858096   -0.71780699
 H         -0.51020098   -1.90675497    1.18709600
 H         -2.80028009   -0.43855101    1.59827495
 O         -3.38416409   -0.43623400   -0.33830801
 H         -2.76764393    1.17311704    0.85505801
 H         -3.29503393    0.11907400   -1.12355399
 H         -2.15551996   -1.88652205   -0.73323298
 H          1.32127595   -3.17716503   -0.85943502
 C          0.65916401    2.83563805   -0.92043501
 H          1.21652901    3.48115492   -0.23311301
 H         -0.41129300    2.92737889   -0.71977699
 H          0.86474198    3.13269305   -1.94792604
 H          3.40856600   -1.12322497    0.10410500
