26
wb97x-d4 ma-def2-tzvp(-f) cpcm(dmso) E: -726.359230103574, G: -726.1826364899999
 C         -1.22850001   -0.18419001    0.43522599
 C         -0.63017499   -1.16571605   -0.51252598
 O         -0.52226001    0.94080698    0.77831799
 C         -2.67979407   -0.10093900    0.73752099
 C          0.86219400    0.93723100    0.44957101
 C          1.46978700   -0.43047699    0.73197597
 H          1.31246495    1.70441496    1.08445597
 O          1.07441795    1.24000096   -0.90267497
 C          0.83350199   -1.50782704   -0.14637800
 H          1.24947095   -0.66982698    1.77478397
 O          2.88168502   -0.38966700    0.61852002
 O          0.92376697   -2.72790098    0.58562499
 H          1.40060496   -1.58842802   -1.07963705
 O         -0.73691100   -0.73190200   -1.88462698
 H         -1.21460295   -2.08502603   -0.45979801
 H         -3.08456802    0.86551797    0.42160800
 O         -2.97261000   -0.18537000    2.14530802
 H         -3.20261693   -0.89175302    0.19088800
 H         -2.61448789   -1.02296698    2.46499205
 H         -0.19542000    0.06805300   -1.96095395
 H          0.72614700   -3.45580602   -0.01611800
 C          0.84934002    2.61819410   -1.22363603
 H          1.47576499    3.25641608   -0.59357500
 H         -0.20251900    2.88055611   -1.08645105
 H          1.12639499    2.74656296   -2.26871896
 H          3.09892392   -0.11995900   -0.28369901
