26
wb97x-d4 ma-def2-tzvp(-f) cpcm(dmso) E: -726.361004764348, G: -726.1854286299999
 C         -1.16455197    0.02065800    0.46544299
 C         -0.68250901   -1.37980795    0.24961700
 O         -0.31542900    0.93597198    1.02798498
 C         -2.61460400    0.28518999    0.67723000
 C          1.03066003    0.93046898    0.55405903
 C          1.61308503   -0.47890601    0.58263302
 H          1.56484199    1.59457004    1.24066103
 O          1.11752796    1.39654398   -0.75570399
 C          0.75133401   -1.41752899   -0.25250399
 H          1.62695801   -0.82550597    1.61905205
 O          2.95984197   -0.48071101    0.13644300
 O          1.21061099   -2.76007104   -0.15618999
 H          0.76544702   -1.08840704   -1.29760098
 O         -1.58722103   -1.98997402   -0.67248702
 H         -0.71865398   -1.93383598    1.20327902
 H         -3.06707311   -0.51586801    1.27699602
 O         -3.34221697    0.41367000   -0.55774403
 H         -2.73689103    1.22936797    1.20962298
 H         -3.19344807   -0.40902200   -1.04203904
 H         -1.46716201   -2.94529200   -0.61924499
 H          2.11723208   -2.78093290   -0.48677701
 C          0.83631998    2.79124093   -0.88730901
 H          1.47094703    3.37267399   -0.21020000
 H         -0.21519500    2.99668097   -0.67144400
 H          1.05691898    3.06045794   -1.91937804
 H          2.98322892   -0.02163100   -0.71439803
