26
wb97x-d4 ma-def2-tzvp(-f) cpcm(dmso) E: -726.359172822924, G: -726.18219921
 C         -1.08593500   -0.28539401    0.80835801
 C         -0.61076301   -1.41495800   -0.04592700
 O         -0.43362299    0.91746497    0.82006699
 C         -2.53032207   -0.17475700    1.13608301
 C          0.93386602    0.92848599    0.40805700
 C          1.58487701   -0.41995201    0.68398899
 H          1.40085304    1.72355199    0.99813199
 O          1.05482101    1.19649196   -0.95322198
 C          0.91456598   -1.50343502   -0.15172900
 H          1.45713496   -0.64983797    1.74463105
 O          2.98271394   -0.37067801    0.44745001
 O          1.33073199   -2.79804897    0.27397200
 H          1.18633699   -1.35176802   -1.20067406
 O         -1.14513302   -1.32747102   -1.38829601
 H         -0.97082502   -2.34145689    0.41425699
 H         -2.90141702   -1.13232398    1.50469196
 O         -3.33499408    0.12062000   -0.03602400
 H         -2.69271207    0.59128398    1.89916503
 H         -3.14881206    1.03168797   -0.29504201
 H         -2.06007099   -1.02104998   -1.30129802
 H          2.29313111   -2.82869291    0.20125200
 C          0.72320700    2.54172206   -1.30086195
 H         -0.34042501    2.73405504   -1.13775206
 H          0.95751703    2.66041803   -2.35790706
 H          1.31860805    3.24523497   -0.70929402
 H          3.11666608   -0.07119200   -0.46208000
