26
wb97x-d4 ma-def2-tzvp(-f) cpcm(dmso) E: -726.358769767955, G: -726.1821897799999
 C         -1.11122000   -0.30480701    0.73106802
 C         -0.67227203   -1.34599495   -0.24377100
 O         -0.39556599    0.86153197    0.84388798
 C         -2.49875808   -0.18159699    1.24325204
 C          0.90619802    0.85775203    0.26130801
 C          1.57024503   -0.48199999    0.55648398
 H          1.43635905    1.68471599    0.74380702
 O          0.84713697    1.05769205   -1.12037504
 C          0.84199899   -1.61209702   -0.16206899
 H          1.47939205   -0.64516300    1.63588405
 O          2.93083191   -0.51055598    0.15880799
 O          1.04211605   -2.84898901    0.51696002
 H          1.22958398   -1.68237305   -1.18320501
 O         -1.07247603   -1.03934002   -1.59516501
 H         -1.18862498   -2.27536392   -0.00085400
 H         -2.95430994   -1.17087996    1.29877603
 O         -3.36060691    0.60563803    0.39264101
 H         -2.48561192    0.25799000    2.24722195
 H         -3.01982188    1.50785804    0.39172399
 H         -0.58538502   -0.24112099   -1.84691799
 H          1.99213099   -3.01739097    0.54690802
 C          0.47059101    2.39138508   -1.48023999
 H         -0.55611801    2.60193801   -1.16981006
 H          0.54689699    2.45679092   -2.56473589
 H          1.15194499    3.11174393   -1.01680601
 H          3.45534611   -0.03736600    0.81521797
