26
wb97x-d4 ma-def2-tzvp(-f) cpcm(dmso) E: -726.358320220189, G: -726.18190601
 C         -1.08854103   -0.21366300    0.88479400
 C         -0.48846501   -1.56774998    0.64141703
 O         -0.20069601    0.74044698    1.33510399
 C         -2.35353804    0.27315801    0.28149199
 C          0.94248199    0.93944901    0.49526900
 C          1.65971994   -0.38669300    0.27038500
 H          1.58192694    1.63416600    1.04597795
 O          0.55983299    1.48839903   -0.73056602
 C          0.71456802   -1.43593204   -0.29397899
 H          1.99960196   -0.73066097    1.25566006
 O          2.77305293   -0.15510300   -0.57501203
 O          1.45075703   -2.64934993   -0.37888700
 H          0.36612999   -1.13400805   -1.28825200
 O         -1.39936399   -2.48082399    0.04910500
 H         -0.11281600   -1.96994698    1.59334099
 H         -3.13982606   -0.47653899    0.37361601
 O         -2.22071910    0.53628302   -1.13459098
 H         -2.66669893    1.18539596    0.80037498
 H         -1.34436405    0.92674601   -1.26695001
 H         -1.97858000   -2.82580805    0.73821998
 H          0.89314401   -3.30309510   -0.81728297
 C          0.26670799    2.88938999   -0.64679199
 H         -0.58022100    3.06945610    0.02104800
 H          0.01533300    3.21769309   -1.65455103
 H          1.14357805    3.43545198   -0.28725800
 H          3.20699310   -1.00665998   -0.71168202
