26
wb97x-d4 ma-def2-tzvp(-f) cpcm(dmso) E: -726.358345053184, G: -726.18176809
 C         -1.11134100   -0.23860601    0.69152302
 C         -0.58770698   -1.35477197   -0.14942101
 O         -0.45381001    0.95736700    0.77324998
 C         -2.56320691   -0.14767300    0.97097802
 C          0.94400901    0.96030700    0.47185001
 C          1.55667806   -0.40265399    0.76259100
 H          1.36845601    1.73403502    1.11941004
 O          1.17823005    1.26071095   -0.86695302
 C          0.93975598   -1.45790303   -0.14666100
 H          1.34774804   -0.65682000    1.80472302
 O          2.96877599   -0.36408800    0.63341600
 O          1.30963302   -2.76678205    0.27879801
 H          1.28940403   -1.28576303   -1.16901600
 O         -1.02142894   -1.22953403   -1.52614403
 H         -0.98957700   -2.28785992    0.25927901
 H         -2.91430402   -1.09296000    1.39559305
 O         -3.27316689    0.10039300   -0.27349499
 H         -2.76338601    0.66327202    1.67670500
 H         -4.20082808   -0.12321900   -0.13273400
 H         -1.94580197   -0.94019699   -1.49103796
 H          2.27433395   -2.80706096    0.27696601
 C          0.91324902    2.62374902   -1.20306802
 H          1.23539805    2.76044011   -2.23456407
 H          1.47933102    3.29382610   -0.54729199
 H         -0.15425600    2.84398508   -1.11980104
 H          3.17381310   -0.04219200   -0.25489300
