26
wb97x-d4 ma-def2-tzvp(-f) cpcm(dmso) E: -726.357763079399, G: -726.1817427999999
 C         -1.17770195   -0.28725299    0.48874700
 C         -0.56988299   -1.27015495   -0.45239800
 O         -0.52772897    0.89560997    0.74759799
 C         -2.63835311   -0.21271101    0.76035798
 C          0.84258401    0.95685500    0.36307499
 C          1.51063800   -0.36885399    0.68638003
 H          1.27374303    1.77251196    0.94927901
 O          0.97143900    1.21905899   -1.00574100
 C          0.93970001   -1.47937500   -0.18703599
 H          1.26303101   -0.59693199    1.72970796
 O          2.91104507   -0.21309701    0.53179401
 O          1.20824099   -2.69841290    0.50206798
 H          1.45538104   -1.47249496   -1.15143204
 O         -0.80815899   -0.91251802   -1.83178794
 H         -1.07654500   -2.22639489   -0.31614301
 H         -3.09037995    0.61127001    0.19008701
 O         -2.94694209   -0.04751900    2.15366912
 H         -3.10842609   -1.14461994    0.44485399
 H         -2.61899090    0.81778198    2.42570210
 H         -0.31665701   -0.09246300   -1.98741198
 H          1.07688999   -3.43054295   -0.11218100
 C          0.59021699    2.55188107   -1.36385095
 H          1.16192496    3.27742100   -0.77709901
 H         -0.47919700    2.70718193   -1.20153904
 H          0.82134598    2.67027402   -2.42131805
 H          3.33278489   -1.02650404    0.83461797
