26
wb97x-d4 ma-def2-tzvp(-f) cpcm(dmso) E: -726.35695665996, G: -726.18169411
 C         -1.26440203   -0.10783800    0.32666901
 C         -0.69131303   -1.25557101   -0.43199599
 O         -0.55751503    1.03181398    0.58742702
 C         -2.67804289   -0.05291800    0.77318400
 C          0.85458702    0.98957098    0.39943600
 C          1.38529098   -0.40114999    0.71994400
 H          1.25285399    1.73882699    1.09102297
 O          1.21377695    1.29607499   -0.91170502
 C          0.82483798   -1.40518200   -0.27876201
 H          1.06112397   -0.66623098    1.72949302
 O          2.80377603   -0.42116201    0.73185700
 O          1.11067903   -2.74042511    0.12720600
 H          1.28020298   -1.20786798   -1.25380504
 O         -0.96119201   -1.17533505   -1.85497200
 H         -1.15750599   -2.16750193   -0.04589100
 H         -3.13417196    0.90216899    0.49881500
 O         -2.82437396   -0.13536400    2.20683408
 H         -3.24236012   -0.85832298    0.29121301
 H         -2.43407893   -0.97138900    2.48968410
 H         -1.91907704   -1.18974400   -1.97126901
 H          2.06988001   -2.81576395    0.21009400
 C          1.00764704    2.66759610   -1.25387597
 H          1.52179694    3.31898093   -0.53912097
 H         -0.05869300    2.90808010   -1.26824796
 H          1.42711306    2.81055903   -2.24889112
 H          3.10915709   -0.09190600   -0.12434500
