26
wb97x-d4 ma-def2-tzvp(-f) cpcm(dmso) E: -726.356979421082, G: -726.1814423
 C         -1.25694299   -0.11949600    0.36185300
 C         -0.70223701   -1.25716698   -0.42369300
 O         -0.55094099    1.02962601    0.58019602
 C         -2.66452408   -0.05672300    0.82675600
 C          0.85966003    0.98581702    0.37462601
 C          1.39425302   -0.40362900    0.69390899
 H          1.26698196    1.73746097    1.05832398
 O          1.20317495    1.28722703   -0.94151503
 C          0.81534302   -1.41670001   -0.28567401
 H          1.08692801   -0.66205001    1.71038699
 O          2.81260300   -0.42448899    0.68313003
 O          1.09490097   -2.74793410    0.13830800
 H          1.26119995   -1.23819101   -1.26872897
 O         -0.98345399   -1.14667106   -1.84273005
 H         -1.17072904   -2.17282009   -0.05036800
 H         -3.13190198    0.88444501    0.52352399
 O         -2.78873610   -0.08471800    2.26408911
 H         -3.22950602   -0.88337100    0.38324800
 H         -2.37652707   -0.90048897    2.57388496
 H         -1.94249701   -1.14365995   -1.95041001
 H          2.05398297   -2.82759905    0.21938699
 C          0.99477398    2.65742493   -1.28754497
 H         -0.07154700    2.89818597   -1.29521799
 H          1.40723002    2.79631305   -2.28602290
 H          1.51409602    3.31168699   -0.57918203
 H          3.10441303   -0.10248100   -0.18053401
