26
wb97x-d4 ma-def2-tzvp(-f) cpcm(dmso) E: -726.357713801466, G: -726.1811874599999
 C         -1.16533303   -0.19708601    0.46445599
 C         -0.65612203   -1.14973903   -0.56218898
 O         -0.43968901    0.92785197    0.76577300
 C         -2.59249306   -0.11720800    0.86876303
 C          0.90985298    0.94609600    0.30697599
 C          1.52218294   -0.42758301    0.52198499
 H          1.40940595    1.70659101    0.91328400
 O          0.98203099    1.27867103   -1.04967594
 C          0.84545702   -1.46387696   -0.37544799
 H          1.32021105   -0.69001102    1.56858695
 O          2.91838694   -0.33766100    0.29819801
 O          1.07241905   -2.77563596    0.13337199
 H          1.31964505   -1.44577503   -1.35753000
 O         -0.92959499   -0.68845701   -1.90493405
 H         -1.21211803   -2.08340311   -0.46938300
 H         -3.04056597    0.82415301    0.53413200
 O         -2.77779102   -0.13029900    2.29546309
 H         -3.13853192   -0.94408602    0.40381700
 H         -2.37853289   -0.94271201    2.63029003
 H         -0.39636901    0.11143700   -2.02549791
 H          0.68009400   -2.83551407    1.01437604
 C          0.66558099    2.65077901   -1.31204104
 H         -0.37940001    2.86140394   -1.07085896
 H          0.83715701    2.81321192   -2.37509704
 H          1.31888795    3.30500007   -0.72677398
 H          3.30522990   -1.19614995    0.50995600
