26
wb97x-d4 ma-def2-tzvp(-f) cpcm(dmso) E: -726.360710061036, G: -726.18493112
 C         -1.15342700    0.03598200    0.19412600
 C         -0.59498399   -1.35610700    0.05765300
 O         -0.38110301    0.96440899    0.84561402
 C         -2.61339092    0.25885800    0.37491199
 C          0.99605900    1.02043295    0.46418101
 C          1.61913204   -0.36274299    0.59216398
 H          1.44867301    1.72078800    1.17332399
 O          1.14092195    1.47427595   -0.84196597
 C          0.88612098   -1.33816099   -0.31035799
 H          1.48786104   -0.68101197    1.63445306
 O          2.99732590   -0.27097800    0.27671099
 O          1.48838198   -2.61427307   -0.12433500
 H          0.99545997   -1.01983905   -1.35294998
 O         -1.34773898   -2.14223194   -0.85869497
 H         -0.68450397   -1.87899494    1.02108002
 H         -2.82945204    1.32352901    0.27194300
 O         -3.08488488   -0.11095700    1.68946195
 H         -3.17062807   -0.28960600   -0.38784000
 H         -3.09694409   -1.07401896    1.74045801
 H         -1.35548198   -1.68132603   -1.70821702
 H          1.14482403   -3.20884204   -0.80165303
 C          0.75869501    2.84032393   -1.00909698
 H         -0.31787601    2.96612406   -0.86850601
 H          1.02857804    3.12008691   -2.02653098
 H          1.29666102    3.47716594   -0.29845801
 H          3.34171891   -1.17288399    0.25252500
