26
wb97x-d4 ma-def2-tzvp(-f) cpcm(dmso) E: -726.357731272054, G: -726.1811301
 C         -1.19020796   -0.15505400    0.55950397
 C         -0.75722301   -1.10732102   -0.50474101
 O         -0.41712701    0.94851100    0.83196503
 C         -2.62968397    0.03571900    0.90197599
 C          0.92986900    0.89025098    0.36272800
 C          1.46081495   -0.52691603    0.55388302
 H          1.47733498    1.61249602    0.97549498
 O          1.01200104    1.23839104   -0.98947197
 C          0.72537601   -1.49434805   -0.36471099
 H          1.24935699   -0.80590898    1.59167302
 O          2.84968305   -0.62453902    0.28237000
 O          0.79568899   -2.82454610    0.14243200
 H          1.18485701   -1.44936097   -1.35687399
 O         -1.04529905   -0.59811801   -1.82507503
 H         -1.35511994   -2.01362395   -0.41177401
 H         -2.71165204    0.79609197    1.68649900
 O         -3.25444388   -1.18781102    1.29644799
 H         -3.20166612    0.38578999    0.03389800
 H         -2.77171111   -1.52900004    2.05927205
 H         -0.46886900    0.17071100   -1.94740200
 H          1.72862506   -3.06053209    0.21885701
 C          0.79861099    2.63387799   -1.22922301
 H          1.50625002    3.22826695   -0.64307302
 H         -0.22442301    2.92113996   -0.97317398
 H          0.97101098    2.79804492   -2.29189301
 H          3.33794594   -0.28221199    1.04041302
