26
wb97x-d4 ma-def2-tzvp(-f) cpcm(dmso) E: -726.357716107637, G: -726.1811286
 C         -1.20917404   -0.16198801    0.50790799
 C         -0.74153000   -1.09890902   -0.55450898
 O         -0.44314200    0.93402803    0.82504803
 C         -2.65674400    0.01560500    0.82038701
 C          0.91669703    0.88459498    0.39553100
 C          1.44375098   -0.53452998    0.58102602
 H          1.44430804    1.59625006    1.03778303
 O          1.04029000    1.25652301   -0.94668400
 C          0.73233402   -1.49626601   -0.36304200
 H          1.20756400   -0.82544899    1.61034906
 O          2.83887601   -0.62703198    0.34338000
 O          0.77153200   -2.82567811    0.14949800
 H          1.22572398   -1.45875895   -1.33923197
 O         -0.97637302   -0.56960201   -1.87666202
 H         -1.34596896   -2.00429392   -0.49928501
 H         -2.76314998    0.79523599    1.58263099
 O         -3.26990294   -1.20689499    1.23848796
 H         -3.21979690    0.33140099   -0.06624100
 H         -2.78396297   -1.52816701    2.00780392
 H         -0.39922100    0.20363000   -1.96282995
 H          1.69828999   -3.06935096    0.26567400
 C          0.83051801    2.65590501   -1.16658902
 H          1.03518903    2.84145188   -2.22005892
 H          1.51808000    3.24010611   -0.54708701
 H         -0.20095700    2.93549299   -0.93679702
 H          3.30677009   -0.28330499    1.11351204
