26
wb97x-d4 ma-def2-tzvp(-f) cpcm(dmso) E: -726.355468897236, G: -726.18099551
 C         -1.25207603   -0.14182600    0.16931801
 C         -0.58831501   -1.28036201   -0.52907902
 O         -0.58050501    0.98078901    0.57051599
 C         -2.64536405   -0.20595101    0.67255902
 C          0.83415997    0.99109900    0.41250101
 C          1.41666901   -0.38080001    0.73300803
 H          1.18772399    1.74505103    1.12270701
 O          1.21253395    1.32477295   -0.88629800
 C          0.92944300   -1.39450502   -0.29788801
 H          1.06881905   -0.66788501    1.73018801
 O          2.82988405   -0.31775999    0.80248898
 O          1.32399094   -2.71908092    0.03585900
 H          1.42117202   -1.17785001   -1.24722505
 O         -0.78127903   -1.23476005   -1.96456504
 H         -1.05134702   -2.20008302   -0.15470199
 H         -3.11230397    0.78333998    0.61742002
 O         -2.73508692   -0.70289397    2.02809000
 H         -3.22973895   -0.90203798    0.06879700
 H         -2.27148199   -0.07613000    2.59644699
 H         -1.73174596   -1.24703300   -2.13168907
 H          0.94068301   -2.94797897    0.89178598
 C          0.95718497    2.68893290   -1.22347200
 H          1.39767003    2.85826898   -2.20512605
 H          1.42276096    3.35562611   -0.48982099
 H         -0.11760100    2.88400507   -1.26581395
 H          3.15415311   -0.01494800   -0.05600500
