26
wb97x-d4 ma-def2-tzvp(-f) cpcm(dmso) E: -726.356128376387, G: -726.1804174
 C         -1.16725802   -0.35497600    0.23017700
 C         -0.64228201   -1.75389802    0.35723400
 O         -0.37766701    0.69152498    0.62620097
 C         -2.61945605   -0.05031200    0.32071999
 C          0.98234999    0.71809202    0.18977900
 C          1.50516903   -0.64439601   -0.27169600
 H          1.54866302    1.06868696    1.05667496
 O          1.12971795    1.59993994   -0.87948602
 C          0.87552202   -1.75334501    0.56607401
 H          2.59326291   -0.63919997   -0.14109100
 O          1.17456305   -0.91065902   -1.62978995
 O          1.13487899   -1.54611897    1.94926298
 H          1.26162398   -2.72225189    0.23581800
 O         -1.01147103   -2.53851008   -0.78012598
 H         -1.09828997   -2.26255798    1.21527004
 H         -3.18963194   -0.95348698    0.10075100
 O         -3.04450393    0.94491202   -0.62175602
 H         -2.87740207    0.27980301    1.33896005
 H         -2.55925393    1.75550902   -0.42619899
 H         -0.59408200   -2.11082697   -1.54178298
 H          2.07825089   -1.67508399    2.10410595
 C          0.93949002    2.97224092   -0.52746099
 H          1.17081499    3.55884504   -1.41534400
 H          1.61647201    3.25170398    0.28647500
 H         -0.09425900    3.15537810   -0.22482300
 H          1.26477897   -0.08101300   -2.11794591
