26
wb97x-d4 ma-def2-tzvp(-f) cpcm(dmso) E: -726.358185490564, G: -726.18039331
 C         -1.29673398    0.05490300    0.11899700
 C         -0.72634703   -1.00549996   -0.77416301
 O         -0.42741400    0.86397600    0.81402701
 C         -2.59040189   -0.13705800    0.82462502
 C          0.92965901    0.85619497    0.40028900
 C          1.49494398   -0.57157898    0.43348700
 H          1.44632006    1.49688995    1.11902702
 O          1.08655405    1.37452495   -0.89289403
 C          0.48794499   -1.62978804   -0.07950300
 H          1.68973100   -0.79964399    1.48357606
 O          2.74822307   -0.62721401   -0.22395800
 O         -0.06549400   -2.37900805    1.00647402
 H          1.00710201   -2.29253197   -0.77736402
 O         -0.40809801   -0.57226002   -2.09821796
 H         -1.47955894   -1.78600395   -0.89339799
 H         -2.99533606    0.82291102    1.15299296
 O         -2.45165706   -0.94160599    2.01554489
 H         -3.30363989   -0.60392803    0.13755199
 H         -1.77294803   -1.60968804    1.83031595
 H          0.11574200    0.24023400   -2.01412892
 H          0.65109801   -2.78833508    1.50574195
 C          0.83914798    2.78367805   -0.98132902
 H          1.48153603    3.31817007   -0.27566600
 H         -0.20958500    3.00422907   -0.77030301
 H          1.08080399    3.07915092   -2.00077009
 H          2.66840696   -0.15071601   -1.06095195
