26
wb97x-d4 ma-def2-tzvp(-f) cpcm(dmso) E: -726.355217768185, G: -726.18033355
 C         -1.12943697   -0.23760200    0.69198698
 C         -0.57509398   -1.33621299   -0.14368901
 O         -0.46397901    0.94942999    0.82860500
 C         -2.55898404   -0.14901200    1.08252704
 C          0.90544301    0.98201400    0.43318000
 C          1.58534801   -0.33705801    0.77175599
 H          1.34030998    1.80587006    1.00788498
 O          1.05271900    1.20846200   -0.93225402
 C          0.96138901   -1.48341000   -0.01566200
 H          1.43471396   -0.52263498    1.83818603
 O          2.98534703   -0.24106599    0.57217401
 O          1.32315600   -2.68469906    0.66114002
 H          1.38050795   -1.48044097   -1.02690804
 O         -0.97618699   -1.14025497   -1.51792598
 H         -1.02213395   -2.26840305    0.21648800
 H         -2.98319888   -1.15224898    1.13539195
 O         -3.37689400    0.57722098    0.13947199
 H         -2.64573312    0.32284099    2.06815910
 H         -3.08127189    1.49511397    0.14581700
 H         -0.82006699   -1.96967101   -1.98638904
 H          1.13348806   -3.42928004    0.07839500
 C          0.66775399    2.52197289   -1.33814800
 H          1.20068002    3.27523708   -0.74778199
 H         -0.41039899    2.66324997   -1.22504401
 H          0.93993998    2.61952710   -2.38841796
 H          3.13258505    0.01105400   -0.34894201
