26
wb97x-d4 ma-def2-tzvp(-f) cpcm(dmso) E: -726.356248507598, G: -726.18004131
 C         -1.23519504    0.04616500    0.27722499
 C         -0.55226099   -1.22583795    0.72255099
 O         -0.43115899    0.99797702   -0.29519299
 C         -2.63176394    0.03591100   -0.22644900
 C          0.92904598    0.92253202    0.15628700
 C          1.58789694   -0.37653500   -0.31837001
 H          0.91811401    0.95395702    1.25438595
 O          1.62570703    1.99425006   -0.36276799
 C          0.60238802   -1.53835905   -0.23152000
 H          2.42984200   -0.57825202    0.35382599
 O          2.03670192   -0.28582299   -1.66167796
 O          1.30563402   -2.70361209    0.17299800
 H          0.17046501   -1.68706298   -1.22882199
 O         -1.44518495   -2.33756495    0.66090697
 H         -0.15072399   -1.14176500    1.74083805
 H         -3.30414200   -0.36387801    0.53795099
 O         -2.78785992   -0.72166800   -1.44715202
 H         -2.93962908    1.05607104   -0.46113399
 H         -2.59113598   -1.63899505   -1.21652496
 H         -1.91660404   -2.40446091    1.49871600
 H          0.65674102   -3.41579509    0.24137899
 C          1.32811296    3.24005508    0.27552399
 H          1.97843301    3.98582196   -0.17926100
 H          1.53481305    3.17359591    1.34837604
 H          0.28310201    3.51669598    0.11665600
 H          2.59866405    0.49657500   -1.72875094
