26
wb97x-d4 ma-def2-tzvp(-f) cpcm(dmso) E: -726.356562025238, G: -726.17977604
 C         -1.15840602   -0.29339501    0.15695900
 C         -0.60805398   -1.67980802    0.02728300
 O         -0.41856700    0.75368601   -0.31543401
 C         -2.62447190   -0.04418600    0.21086700
 C          0.97814202    0.75252700    0.03059300
 C          1.63772798   -0.59197801   -0.24394600
 H          1.05194104    1.00383306    1.09659600
 O          1.60774899    1.70429301   -0.75100797
 C          0.86343700   -1.71756005    0.44675100
 H          2.65521002   -0.55181199    0.15865199
 O          1.65534902   -0.87562102   -1.63952398
 O          0.99831200   -1.61653399    1.85848999
 H          1.29764497   -2.67493892    0.15283400
 O         -0.77775401   -2.19676089   -1.30481005
 H         -1.17805696   -2.34479189    0.67909801
 H         -2.84387803    0.92762202   -0.24289601
 O         -3.05475497   -0.06296200    1.58551800
 H         -3.15938807   -0.82165700   -0.34694001
 H         -4.01916504   -0.09517300    1.58844900
 H         -0.12831700   -1.74098206   -1.86219096
 H          0.33807999   -0.99587500    2.19443202
 C          1.28212404    3.05411196   -0.40415299
 H          1.48699403    3.22989392    0.65663099
 H          0.23317200    3.26909995   -0.61934602
 H          1.91965497    3.69393492   -1.01233995
 H          1.96527505   -0.08496700   -2.10056210
