26
wb97x-d4 ma-def2-tzvp(-f) cpcm(dmso) E: -726.360019738205, G: -726.18476961
 C         -1.09267998   -0.02710700    0.10106800
 C         -0.51753998   -1.41473603    0.03272800
 O         -0.39000100    0.88010597    0.85515797
 C         -2.55970907    0.19085200    0.09998000
 C          1.00693095    0.95727599    0.57734603
 C          1.67408299   -0.41681701    0.63287699
 H          1.40951800    1.61202800    1.35614300
 O          1.24612701    1.49094403   -0.68861198
 C          0.96771801   -1.38520300   -0.30481899
 H          1.59358394   -0.79350400    1.65577602
 O          3.05846596   -0.29466599    0.35589299
 O          1.54844904   -2.67217588   -0.14371599
 H          1.08695495   -1.04482806   -1.34077799
 O         -1.16768503   -2.21691608   -0.94782901
 H         -0.61922801   -1.89191997    1.02038503
 H         -2.76188111    1.26653004    0.11145000
 O         -3.14284992   -0.44021100    1.26187003
 H         -2.99317503   -0.24122900   -0.80650502
 H         -4.10112906   -0.42285001    1.15434504
 H         -1.94866705   -2.61627507   -0.54824799
 H          1.03379905   -3.28307390   -0.68626601
 C          0.93510801    2.88178301   -0.78835601
 H          1.47542202    3.44756699   -0.02205900
 H         -0.13937099    3.04852796   -0.67786801
 H          1.25473404    3.20650506   -1.77759302
 H          3.14301991    0.17939401   -0.48236799
