26
wb97x-d4 ma-def2-tzvp(-f) cpcm(dmso) E: -726.355168641549, G: -726.17931349
 C         -1.15698004   -0.26290101   -0.33465600
 C         -0.55105698   -1.32931399    0.53171098
 O         -0.41769600    0.87524098   -0.50259900
 C         -2.61749101   -0.06768100   -0.50646800
 C          0.90661198    0.84664398    0.05148200
 C          1.64911604   -0.42175901   -0.35387000
 H          0.82086903    0.90254498    1.14521503
 O          1.59893203    1.93499196   -0.44575000
 C          0.85009301   -1.67503595    0.01795800
 H          2.59374809   -0.43556699    0.19991100
 O          1.88807905   -0.44247401   -1.75436795
 O          1.58514798   -2.41260600    0.98665702
 H          0.73074102   -2.26739001   -0.89697802
 O         -1.36258101   -2.49213910    0.61246699
 H         -0.45658499   -0.98101902    1.57038796
 H         -2.79623508    0.58920097   -1.35985601
 O         -3.24319100    0.59172201    0.62044001
 H         -3.10905004   -1.02499795   -0.69240397
 H         -3.22871995   -0.02366800    1.36309803
 H         -1.48613703   -2.83773994   -0.28172100
 H          1.05836105   -3.18739796    1.22129905
 C          1.17989695    3.18942690    0.10051100
 H          0.15206300    3.41725492   -0.19126000
 H          1.85194099    3.94509411   -0.30357099
 H          1.25924397    3.17072606    1.19232404
 H          2.30087805    0.39884099   -1.98996103
