26
wb97x-d4 ma-def2-tzvp(-f) cpcm(dmso) E: -726.355206117717, G: -726.17914855
 C         -1.13832796   -0.26128301   -0.39141601
 C         -0.57979399   -1.32490802    0.50954002
 O         -0.39227101    0.87786800   -0.51780897
 C         -2.58871698   -0.06428400   -0.63393402
 C          0.90634102    0.84621203    0.09395300
 C          1.66262496   -0.42620501   -0.27198100
 H          0.77212101    0.90723503    1.18248200
 O          1.62437201    1.92997801   -0.37637699
 C          0.84531999   -1.67566502    0.07125400
 H          2.58189511   -0.43871301    0.32301801
 O          1.96285105   -0.45565099   -1.66047800
 O          1.52995300   -2.40330410    1.08392501
 H          0.77196801   -2.27691197   -0.84263003
 O         -1.39641297   -2.48601007    0.55355299
 H         -0.53937298   -0.97043598    1.54960299
 H         -2.72495699    0.59806502   -1.49089503
 O         -3.26731491    0.58790201    0.46618101
 H         -3.07090497   -1.02005696   -0.84999800
 H         -3.29919100   -0.03660900    1.20060897
 H         -1.46734095   -2.83959293   -0.34324500
 H          0.99096698   -3.17522907    1.29966605
 C          1.18037403    3.18915009    0.13815300
 H          1.87978303    3.93924999   -0.22811700
 H          1.19364405    3.17541099    1.23285699
 H          0.17326500    3.42102194   -0.21587400
 H          2.38912606    0.38276500   -1.88204002
