26
wb97x-d4 ma-def2-tzvp(-f) cpcm(dmso) E: -726.356423322773, G: -726.1788438899999
 C         -1.14580095   -0.20560500    0.56739998
 C         -0.64514202   -1.10813904   -0.50934100
 O         -0.39342299    0.89033002    0.91962498
 C         -2.60200500   -0.03590200    0.85455698
 C          0.96709597    0.88016701    0.50439399
 C          1.55125999   -0.52079898    0.63637298
 H          1.47702706    1.58163905    1.16993201
 O          1.10372901    1.29202199   -0.82874501
 C          0.82845002   -1.51301599   -0.28278300
 H          1.39408696   -0.82851899    1.67379105
 O          2.95310903   -0.50633800    0.43325099
 O          0.95259398   -2.84059310    0.21684299
 H          1.32216203   -1.52087295   -1.25659597
 O         -0.84050602   -0.54117501   -1.82201195
 H         -1.24437797   -2.01993608   -0.50486898
 H         -2.72348499    0.78070801    1.56849897
 O         -3.19204593   -1.19942701    1.44660497
 H         -3.15309501    0.22860999   -0.05841400
 H         -3.38501406   -1.83228803    0.74610001
 H         -0.27724701    0.24620900   -1.86465096
 H          0.52489102   -2.88358593    1.08200300
 C          0.88806701    2.69661188   -1.01375103
 H          1.09549701    2.91156697   -2.06076908
 H          1.56989801    3.26657391   -0.37558299
 H         -0.14575800    2.96324396   -0.78048098
 H          3.12003207   -0.18148699   -0.46137899
