26
wb97x-d4 ma-def2-tzvp(-f) cpcm(dmso) E: -726.354680911351, G: -726.1788124899999
 C         -1.16939497   -0.11733300    0.49912199
 C         -0.72419399   -1.18993998   -0.43841001
 O         -0.42915300    1.01752698    0.69481301
 C         -2.60054803    0.03586500    0.89390999
 C          0.95432401    0.95933402    0.33550599
 C          1.47016597   -0.46063799    0.54925603
 H          1.44587505    1.66945601    1.00972903
 O          1.15308106    1.32798004   -0.99026197
 C          0.79331398   -1.39975905   -0.43409500
 H          1.20778406   -0.75779802    1.57050502
 O          2.87108302   -0.55450797    0.34715599
 O          1.06542695   -2.75966597   -0.10564900
 H          1.16980195   -1.17644203   -1.43572199
 O         -1.11835504   -0.93304902   -1.81026196
 H         -1.19330001   -2.12257004   -0.11390100
 H         -2.69536710    0.92427498    1.52720404
 O         -3.11005497   -1.12748301    1.55542505
 H         -3.25259089    0.17605400    0.02328900
 H         -2.54177308   -1.30072105    2.31615806
 H         -2.07940412   -0.99893099   -1.85748005
 H          2.02525592   -2.86584210   -0.10665000
 C          0.90197402    2.71150708   -1.23643303
 H         -0.15929300    2.94466901   -1.11509204
 H          1.20263302    2.90805101   -2.26485205
 H          1.49293900    3.33380699   -0.55526400
 H          3.31977201   -0.24384400    1.14199996
