26
wb97x-d4 ma-def2-tzvp(-f) cpcm(dmso) E: -726.356745974111, G: -726.17877363
 C         -1.40719199    0.08304700    0.20370100
 C         -0.90873599   -0.89460099   -0.81368601
 O         -0.55069602    1.07078397    0.63397300
 C         -2.43833494   -0.30218500    1.20159400
 C          0.81862402    0.95719099    0.24714801
 C          1.26207495   -0.48875001    0.46612999
 H          1.35360706    1.63297606    0.92123199
 O          1.03674304    1.34123194   -1.07922995
 C          0.43844101   -1.48793805   -0.35801700
 H          1.05953705   -0.69361103    1.52308905
 O          2.63600397   -0.68324900    0.17712601
 O          0.11063700   -2.63601708    0.43082100
 H          1.01113296   -1.78492904   -1.24154401
 O         -0.83366799   -0.36042300   -2.13647509
 H         -1.62150502   -1.71825397   -0.86839497
 H         -2.85196805    0.58280599    1.68863404
 O         -1.88653696   -1.11224699    2.26458192
 H         -3.24701500   -0.84301603    0.70001501
 H         -1.37534106   -1.82549202    1.85263705
 H         -0.18371600    0.36012501   -2.10871100
 H          0.92529899   -3.00422812    0.79502797
 C          0.89447802    2.75153208   -1.29166698
 H          1.56433403    3.29870009   -0.62187999
 H         -0.13795900    3.06664896   -1.12178600
 H          1.17207897    2.94117999   -2.32730794
 H          3.15967488   -0.25128499    0.86298800
