26
wb97x-d4 ma-def2-tzvp(-f) cpcm(dmso) E: -726.356312639902, G: -726.17864615
 C         -1.11009598   -0.37040499    0.89807200
 C         -0.69260800   -1.28204405   -0.21405201
 O         -0.49394700    0.84961402    1.01840901
 C         -2.51464200   -0.37915000    1.38685703
 C          0.76107299    0.98375899    0.36194399
 C          1.53801405   -0.31906399    0.49018401
 H          1.27709794    1.80021095    0.86959702
 O          0.55640399    1.29181004   -0.99231797
 C          0.84389299   -1.41550899   -0.31645799
 H          1.52497005   -0.59930497    1.55168796
 O          2.86409593   -0.07750300    0.05374400
 O          1.31742597   -2.70098901    0.07223100
 H          1.12620497   -1.30348396   -1.36376798
 O         -1.28277004   -0.87852901   -1.46669304
 H         -1.10668898   -2.26964211   -0.00567800
 H         -2.82389998   -1.41658795    1.55253899
 O         -3.42519689    0.27209401    0.47928801
 H         -2.58973908    0.16446701    2.33059311
 H         -3.26733994   -0.09886200   -0.39902300
 H         -0.90427500   -0.01440200   -1.68992305
 H          1.10409606   -2.83821893    1.00442302
 C          0.91814202    2.62370992   -1.36495197
 H          0.36750999    3.35629511   -0.76757300
 H          0.65309900    2.73932910   -2.41494608
 H          1.99357998    2.77672696   -1.24052000
 H          3.36559606   -0.89432102    0.16633600
