26
wb97x-d4 ma-def2-tzvp(-f) cpcm(dmso) E: -726.354895958056, G: -726.17848569
 C         -1.08773804   -0.26722100   -0.05270700
 C         -0.60399300   -1.69180000   -0.02674100
 O         -0.32623300    0.68719202    0.57191402
 C         -2.53664589    0.04537100   -0.07806900
 C          1.07722104    0.73178101    0.28161800
 C          1.65068603   -0.62106502   -0.15948500
 H          1.53745699    1.05028200    1.22124100
 O          1.34069800    1.65172398   -0.72765201
 C          0.84551299   -1.75482404    0.47201100
 H          2.69191194   -0.66545701    0.17482500
 O          1.57700598   -0.79480499   -1.57046700
 O          0.93020302   -1.71090496    1.89143598
 H          1.27382195   -2.71050310    0.16652200
 O         -0.75833601   -2.31976104   -1.30060005
 H         -1.22297502   -2.27911997    0.66105998
 H         -2.68724895    1.07929003   -0.40602699
 O         -3.09089804   -0.13563600    1.24425995
 H         -3.03065109   -0.62825602   -0.78488702
 H         -4.04531717   -0.01007200    1.18038905
 H         -0.16663100   -1.84399796   -1.90219903
 H          0.40317899   -0.97235203    2.22191191
 C          1.14666402    3.01460004   -0.33891600
 H          1.45548499    3.62756705   -1.18415403
 H          1.76428902    3.25058508    0.53348500
 H          0.09608300    3.20624399   -0.10992400
 H          1.76644802    0.06113900   -1.97884405
