26
wb97x-d4 ma-def2-tzvp(-f) cpcm(dmso) E: -726.354583401724, G: -726.17814457
 C         -1.21221805   -0.02928200    0.59142399
 C         -0.41579899   -1.22076797    1.02694297
 O         -0.48507300    1.08435404    0.26849100
 C         -2.52480888   -0.11407800   -0.08815100
 C          0.93130398    0.87940001    0.06918400
 C          1.12353396   -0.35896799   -0.80212802
 H          1.40809798    0.73853302    1.04864895
 O          1.43515098    1.99977899   -0.55941498
 C          0.62512201   -1.60285902   -0.03692700
 H          2.19109988   -0.47126800   -1.00131404
 O          0.47982401   -0.21693900   -2.05465007
 O          1.67554295   -2.27486491    0.65271300
 H          0.15021400   -2.27194405   -0.76194799
 O         -1.30004597   -2.29050207    1.31870997
 H          0.14886300   -0.94793499    1.93035698
 H         -3.14428210   -0.88219398    0.37522799
 O         -2.32112694   -0.45626900   -1.49195504
 H         -3.03498793    0.85033000   -0.02993000
 H         -2.91948605    0.08028800   -2.02458692
 H         -0.77236903   -3.01485801    1.67565000
 H          2.24669909   -2.69981599    0.00126300
 C          1.52623904    3.14050198    0.29848501
 H          0.53284901    3.48856711    0.59263402
 H          2.03209400    3.91988707   -0.26980799
 H          2.11061502    2.89889598    1.19277298
 H         -0.48705199   -0.22799000   -1.92169094
