26
wb97x-d4 ma-def2-tzvp(-f) cpcm(dmso) E: -726.354579039599, G: -726.1781242
 C         -1.22731197   -0.01947200    0.55768198
 C         -0.44096100   -1.19899797    1.04117298
 O         -0.49397701    1.08881795    0.23005800
 C         -2.51923490   -0.12365300   -0.15773501
 C          0.92822599    0.88468897    0.07744500
 C          1.14997900   -0.37172401   -0.76058000
 H          1.37595904    0.76695299    1.07355404
 O          1.44725895    1.99292696   -0.56057602
 C          0.63136500   -1.60031104    0.01614900
 H          2.22332191   -0.48551801   -0.92474401
 O          0.54452002   -0.25844899   -2.03519702
 O          1.66201305   -2.25538898    0.75019902
 H          0.17909700   -2.28585696   -0.70789802
 O         -1.33063996   -2.26526189    1.32932901
 H          0.09652500   -0.90588802    1.95478499
 H         -3.15145493   -0.88110399    0.30612200
 O         -2.27208710   -0.49960199   -1.54563403
 H         -3.03152108    0.84123600   -0.13838699
 H         -2.86990595    0.00621500   -2.10825706
 H         -0.81192601   -2.97959900    1.71813095
 H          2.24832010   -2.69885397    0.12531200
 C          1.50412095    3.15439796    0.27232701
 H          2.05799603    2.93725204    1.19194603
 H          0.49978799    3.50483608    0.52334398
 H          2.02637696    3.92222190   -0.29683501
 H         -0.42584699   -0.26986900   -1.93171406
