26
wb97x-d4 ma-def2-tzvp(-f) cpcm(dmso) E: -726.355476599327, G: -726.17791734
 C         -1.24285901   -0.00895400    0.67956698
 C         -0.50733101   -1.25805604    1.08196604
 O         -0.47998300    1.08553100    0.36466500
 C         -2.56322289   -0.07336400    0.00051000
 C          0.91699803    0.84522700    0.13845700
 C          1.07928598   -0.40931299   -0.70946997
 H          1.42662501    0.73173499    1.10491705
 O          1.42334700    1.92580998   -0.56422800
 C          0.57705700   -1.63811398    0.05773100
 H          2.14154506   -0.53587103   -0.94051999
 O          0.31316701   -0.30683401   -1.90665996
 O          1.62639499   -2.27217698    0.77786303
 H          0.14020400   -2.32624698   -0.67403102
 O         -1.39637005   -2.33479691    1.33149803
 H          0.01358900   -1.07646096    2.02932096
 H         -3.31823993   -0.53235799    0.64026701
 O         -2.50594401   -0.90136898   -1.18596005
 H         -2.88677096    0.94047803   -0.25389200
 H         -1.70245898   -0.64768499   -1.66749299
 H         -1.87404203   -2.51340008    0.50955200
 H          2.22846198   -2.68074203    0.14392801
 C          1.49584699    3.13049006    0.20429000
 H          0.49643600    3.50179195    0.44259200
 H          2.02164197    3.86113906   -0.40853399
 H          2.05461192    2.95512295    1.12958097
 H          0.52201003    0.53842002   -2.32591796
