26
wb97x-d4 ma-def2-tzvp(-f) cpcm(dmso) E: -726.356254760735, G: -726.17740566
 C         -1.28361797    0.05293100    0.08755100
 C         -0.69033998   -0.92802203   -0.87636101
 O         -0.46318701    0.99233401    0.66920799
 C         -2.41985893   -0.33903599    0.95479101
 C          0.91497499    0.97763199    0.29745600
 C          1.44723701   -0.44189200    0.46178699
 H          1.39797699    1.65300202    1.00826395
 O          1.12213802    1.43730605   -1.00705004
 C          0.61207098   -1.50793695   -0.28580999
 H          1.35057604   -0.65853399    1.53110504
 O          2.81582308   -0.43695301    0.08582600
 O          0.31563300   -2.60228801    0.57755399
 H          1.21252000   -1.90892804   -1.10417902
 O         -0.49638799   -0.40790400   -2.19445205
 H         -1.39270902   -1.75513005   -0.98782200
 H         -2.81997299    0.53118902    1.48263097
 O         -1.92821503   -1.30656803    1.92297900
 H         -3.20878100   -0.79417998    0.35125700
 H         -2.68698502   -1.75784600    2.31276703
 H          0.09501000    0.35769799   -2.10414410
 H         -0.40056899   -2.32242393    1.17546797
 C          0.86379498    2.83901191   -1.16036797
 H          1.48191595    3.41006589   -0.46136200
 H         -0.19190501    3.06120205   -0.98822302
 H          1.13136005    3.09452605   -2.18430591
 H          3.22149706   -1.23925698    0.43543199
