26
wb97x-d4 ma-def2-tzvp(-f) cpcm(dmso) E: -726.36095588878, G: -726.1846977399999
 C         -1.18284905    0.06238500    0.14371300
 C         -0.68007100   -1.33971500   -0.03581900
 O         -0.37561399    0.91259998    0.85632002
 C         -2.63368297    0.34071699    0.31054401
 C          1.00332606    0.92707300    0.49423000
 C          1.59710097   -0.48109001    0.48021299
 H          1.48250306    1.54505205    1.25980997
 O          1.19519401    1.47212803   -0.77415198
 C          0.78654999   -1.36660099   -0.46069801
 H          1.53964305   -0.88466501    1.49574006
 O          2.97191310   -0.43124601    0.14491799
 O          1.26760602   -2.70341206   -0.50895202
 H          0.86616701   -0.98684502   -1.48208106
 O         -1.50916505   -2.00002789   -0.98241597
 H         -0.74694002   -1.86528301    0.93499702
 H         -2.79986095    1.41886795    0.28251800
 O         -3.15156889   -0.10415600    1.58496201
 H         -3.19632602   -0.12688699   -0.50026000
 H         -3.22568893   -1.06509805    1.55329394
 H         -1.17223001   -2.90049410   -1.07062101
 H          1.29309499   -3.05377102    0.39111400
 C          0.94772798    2.87763000   -0.83600199
 H         -0.11079900    3.09324288   -0.66936398
 H          1.23378098    3.20362711   -1.83511901
 H          1.55174804    3.40296292   -0.08873200
 H          3.04844189    0.05300100   -0.68815601
