48
wb97x-d4 ma-def2-tzvp(-f) cpcm(dmso) E: -1056.433510337991, G: -1056.0568202900001
 C          2.16952896   -1.67756903   -0.20094000
 C          1.66274500   -1.61555505    1.23418796
 O          0.79088801   -2.68288708    1.55076301
 C          1.02264595   -0.25933000    1.50701594
 O          0.56921601   -0.11776300    2.80207992
 C          1.93422902    0.89256901    1.11547101
 C          2.45643401    0.70054901   -0.30990300
 C          3.54114389    1.70117104   -0.66805798
 O          4.65001202    1.65199494    0.22170600
 O          3.03786707   -0.59894902   -0.46199501
 O          1.25787497    2.13819003    1.15769899
 O          1.03769600   -1.68385696   -1.02337098
 H          1.63276398    0.82624602   -1.01919699
 H          2.76902199   -2.57916689   -0.36185399
 H          0.02365300   -0.14940800    0.79327297
 H          2.78489804    0.88914299    1.80726802
 C          1.30880201   -2.03598809   -2.38213897
 H          0.22473399   -2.84053707    0.78256899
 H          3.86015010    1.51257205   -1.69873798
 H          3.12977409    2.70893788   -0.60928100
 H          1.17819905    2.41259098    2.07873607
 H          0.19058099   -0.96297300    3.08981204
 H          5.06786680    0.78775501    0.12538300
 H          0.34752399   -2.07197905   -2.89329195
 H          1.79001296   -3.01776791   -2.42949891
 H          1.94922900   -1.28778005   -2.85593700
 H          2.52630711   -1.70230997    1.90089905
 C         -3.31335592    1.48823595    0.71972901
 C         -1.95934904    0.99639797    1.29758096
 C         -3.62164593    0.69026601   -0.55069703
 C         -3.51024199   -0.80344301   -0.23012701
 C         -2.03023505   -1.12731397    0.10684700
 N         -1.32087100    0.15357099    0.27216199
 H         -3.25511694    2.55442095    0.49082899
 H         -1.28584301    1.81944895    1.52590203
 H         -4.62491417    0.92525500   -0.90979803
 H         -4.15046310   -1.05626202    0.61746401
 H         -1.53660405   -1.67403805   -0.69466001
 H         -4.09509277    1.34378505    1.46731901
 H         -2.09403491    0.38328600    2.18741989
 C         -2.58127189    1.04230702   -1.61834002
 H         -3.82250309   -1.40780401   -1.08339596
 H         -1.94155705   -1.68465996    1.03898799
 C         -1.16576004    0.86520499   -1.00870097
 H         -2.70058393    2.07509494   -1.95012105
 H         -2.69753790    0.39097601   -2.48702407
 H         -0.68649799    1.81926000   -0.79464698
 H         -0.52032298    0.26810899   -1.64938796
