48
wb97x-d4 ma-def2-tzvp(-f) cpcm(dmso) E: -1056.432791070516, G: -1056.0567570100002
 C          2.16952109   -1.68067396    0.00205600
 C          1.67158902   -1.43422699    1.41963899
 O          0.80490798   -2.45013499    1.88514602
 C          1.02950597   -0.05492300    1.53209198
 O          0.59821200    0.23205100    2.80943704
 C          1.92360306    1.03984296    0.97988200
 C          2.44494009    0.65468699   -0.41120899
 C          3.51815891    1.60447705   -0.91227299
 O          4.64462519    1.66368997   -0.04477300
 O          3.04064989   -0.64767897   -0.39335799
 O          1.17850006    2.24702907    0.91064698
 O          1.03556800   -1.78081501   -0.81099099
 H          1.61439097    0.67386299   -1.12334299
 H          2.76272392   -2.59949088   -0.04626600
 H          0.01842700   -0.04095400    0.82653999
 H          2.77140188    1.14610398    1.66547406
 C          1.31084597   -2.25572205   -2.13079405
 H          0.22894999   -2.71266508    1.15439701
 H          3.81759405    1.29132497   -1.91814196
 H          3.10932112    2.61414003   -0.97461897
 H          1.76479995    2.98603010    1.10707700
 H          0.25494799   -0.58412498    3.20541096
 H          5.05731201    0.79162401   -0.03944900
 H          1.93615901   -1.54417896   -2.67581201
 H          0.34965000   -2.35803103   -2.63292289
 H          1.81115901   -3.22805095   -2.08663297
 H          2.54181790   -1.43430400    2.08338094
 C         -3.47147393    1.25228798    0.78169501
 C         -1.99436200    1.08435798    1.23504400
 C         -3.65529990    0.55646598   -0.57013398
 C         -3.40456605   -0.94237900   -0.38808900
 C         -1.99335504   -1.14040506    0.22773600
 N         -1.33576405    0.17701000    0.28160599
 H         -3.70563889    2.31532192    0.70339501
 H         -1.44688404    2.02480102    1.22108102
 H         -4.66739178    0.72337103   -0.94293898
 H         -4.15400124   -1.37919605    0.27409700
 H         -1.37435400   -1.79668605   -0.37992001
 H         -4.13984299    0.81153500    1.52383006
 H         -1.91988897    0.64204198    2.22718692
 C         -2.63221407    1.11372304   -1.56463301
 H         -3.46161509   -1.45466101   -1.35047102
 H         -2.04280210   -1.52329803    1.24693704
 C         -1.20169103    0.78586698   -1.05302095
 H         -2.75021911    2.19473791   -1.66173303
 H         -2.77580905    0.66750002   -2.55018497
 H         -0.59103501    1.68067396   -0.94934702
 H         -0.69107401    0.06804100   -1.69273305
