48
wb97x-d4 ma-def2-tzvp(-f) cpcm(dmso) E: -1056.431885287737, G: -1056.05569554
 C          1.93116903   -1.83798397    0.41410899
 C          1.42080104   -1.25981796    1.73932803
 O          0.36699301   -2.01660705    2.29783511
 C          0.95944202    0.16963001    1.53686798
 O          0.52322203    0.73367101    2.71771002
 C          2.00246692    1.01034606    0.81870502
 C          2.49673700    0.31326100   -0.44866201
 C          3.67095208    1.02586806   -1.09537995
 O          4.78745794    1.15701795   -0.22294800
 O          2.94405508   -1.00580096   -0.12021800
 O          1.39881897    2.26570201    0.53772002
 O          0.84834701   -1.97969794   -0.45281801
 H          1.68505096    0.26715001   -1.18137503
 H          2.41804504   -2.80451012    0.58565199
 H         -0.02307400    0.13693400    0.79694098
 H          2.84667611    1.13560903    1.50590599
 C          1.16775203   -2.69050908   -1.64915204
 H          0.74046201   -2.81478095    2.68962598
 H          3.94889212    0.48241600   -2.00480795
 H          3.36815310    2.03536201   -1.37904704
 H          2.06823897    2.95698905    0.59258002
 H          0.53090203    1.69755995    2.61051607
 H          5.09875202    0.26912099   -0.00883300
 H          1.86344802   -2.12110400   -2.27140093
 H          0.23108900   -2.83409691   -2.18706608
 H          1.60697401   -3.66422009   -1.40818906
 H          2.27799892   -1.22380996    2.42349100
 C         -3.27375293    1.82096398    0.15785199
 C         -1.93098497    1.48715401    0.86268198
 C         -3.62466002    0.67224598   -0.79217499
 C         -3.58056808   -0.64355701   -0.00900600
 C         -2.11806989   -0.90685701    0.43854001
 N         -1.34797299    0.32227099    0.17795700
 H         -3.17860603    2.75576210   -0.39828199
 H         -1.22003698    2.30924296    0.79543698
 H         -4.61815977    0.82538599   -1.21703506
 H         -4.23427296   -0.58474898    0.86374199
 H         -1.64853406   -1.70983505   -0.12460100
 H         -4.05200577    1.95153701    0.91153097
 H         -2.07522798    1.21572900    1.90749502
 C         -2.57638788    0.61590499   -1.90761304
 H         -3.91949797   -1.47434998   -0.63043100
 H         -2.04470706   -1.12805605    1.50150895
 C         -1.16493797    0.56867802   -1.26256299
 H         -2.64733410    1.49469197   -2.55073905
 H         -2.73262596   -0.27074999   -2.52552891
 H         -0.63277298    1.51310802   -1.36760497
 H         -0.55870301   -0.23822001   -1.66825795
