48
wb97x-d4 ma-def2-tzvp(-f) cpcm(dmso) E: -1056.422792130262, G: -1056.04594978
 C          2.73554397   -1.29926801    1.09391999
 C          1.29720700   -0.79408801    1.42681003
 O          0.36803600   -1.84480202    1.56550801
 C          0.87098002    0.25130299    0.38703501
 O          1.22457504    1.52540302    0.77800602
 C          1.29698896   -0.10324700   -1.02362299
 C          2.83565307   -0.26246300   -1.06233394
 C          3.51010799    0.92689902   -1.72136497
 O          3.18712091    2.16243005   -1.06813300
 O          3.40318394   -0.38850999    0.24423200
 O          0.59585100   -1.29670203   -1.35024202
 O          2.64688492   -2.57373405    0.53503799
 H          3.06726193   -1.15445006   -1.65591598
 H          3.34625101   -1.32466996    2.00165105
 H         -0.32140401    0.19586900    0.37755299
 H          1.00307000    0.69954401   -1.70927095
 C          3.91185308   -3.22340488    0.41506499
 H          0.48275101   -2.43285203    0.80694902
 H          4.59232378    0.77963400   -1.73092103
 H          3.15660310    1.00393796   -2.75151896
 H          0.87410098   -1.58699799   -2.22673607
 H          1.74107897    1.95935702    0.06774600
 H          3.84827495    2.31756210   -0.38287601
 H          4.42315102   -3.24351001    1.38347805
 H          4.54507685   -2.71857309   -0.31960499
 H          3.71150589   -4.24215317    0.08549500
 H          1.33638096   -0.27987900    2.38782501
 C         -4.05257320   -0.38768399    0.39418799
 C         -2.54593110   -0.77065003    0.35825500
 C         -4.19118309    1.10518003    0.07592400
 C         -3.47101998    1.39889503   -1.24406195
 C         -1.95238304    1.13672304   -1.04598999
 N         -1.78980601    0.48609200    0.26019400
 H         -4.46595192   -0.60229099    1.38176703
 H         -2.22720194   -1.28754103    1.26058602
 H         -5.24548912    1.37524903   -0.00434200
 H         -3.85771203    0.75508302   -2.03656101
 H         -1.37451196    2.06087995   -1.02934396
 H         -4.59368420   -0.98912901   -0.33823901
 H         -2.29347801   -1.37569106   -0.51136202
 C         -3.52388597    1.91616297    1.19307196
 H         -3.62197089    2.43688512   -1.54479301
 H         -1.55122197    0.47024599   -1.80848098
 C         -2.06964707    1.39897895    1.37547398
 H         -4.06633377    1.80069196    2.13277602
 H         -3.51300311    2.97676396    0.93438601
 H         -1.94532204    0.83648199    2.30044198
 H         -1.33810306    2.20604110    1.34234202
