48
wb97x-d4 ma-def2-tzvp(-f) cpcm(dmso) E: -1056.42257205337, G: -1056.04572108
 C          2.68769908   -1.18508196    1.12036395
 C          1.48360002   -0.31215900    1.51525903
 O          0.46323800   -1.07206798    2.12902308
 C          0.98925602    0.50150597    0.30027199
 O          1.28072798    1.85559499    0.36113700
 C          1.41962397   -0.03629100   -1.05920196
 C          2.94316006   -0.26637900   -1.08263397
 C          3.70487905    0.92330498   -1.64674401
 O          3.35839796    1.04256499   -3.02373290
 O          3.50867105   -0.49141300    0.21891600
 O          0.67414302   -1.19626403   -1.39685202
 O          2.18955112   -2.38904095    0.59233397
 H          3.13301492   -1.14112997   -1.71460402
 H          3.31360006   -1.39346600    1.99242699
 H         -0.19057199    0.36699501    0.31104299
 H          1.17667103    0.70989299   -1.81672800
 C          3.18239903   -3.41149306    0.44431201
 H          0.43914500   -1.93684304    1.69602096
 H          3.43890905    1.82899296   -1.09397805
 H          4.77729893    0.73716003   -1.52685499
 H          1.02419496   -1.93045700   -0.86792499
 H          1.20631301    2.17167711    1.27229202
 H          3.71123791    1.87727106   -3.35061789
 H          2.66139102   -4.30361509    0.10086500
 H          3.66144109   -3.60695195    1.40792406
 H          3.93461895   -3.11484790   -0.29018599
 H          1.84080994    0.40075999    2.26226306
 C         -3.83720112   -0.57546598   -0.00810500
 C         -2.32344604   -0.80000103    0.26823601
 C         -4.13497496    0.92639601    0.08033400
 C         -3.41404796    1.63728595   -1.07111394
 C         -1.91869903    1.21523297   -1.04800403
 N         -1.68847299    0.52387398    0.22565100
 H         -4.41988897   -1.13094902    0.72857201
 H         -2.14336395   -1.21930802    1.25615299
 H         -5.21011019    1.10128498    0.01623100
 H         -3.84828091    1.35786605   -2.03232503
 H         -1.24963999    2.07465100   -1.09660196
 H         -4.09489298   -0.95208001   -1.00003397
 H         -1.85115397   -1.42740500   -0.48525801
 C         -3.59041500    1.46370101    1.40844095
 H         -3.49883890    2.72010589   -0.96013099
 H         -1.67497897    0.51892698   -1.84943700
 C         -2.04046702    1.35188997    1.38506198
 H         -3.99178791    0.88668501    2.24391198
 H         -3.87228990    2.50827694    1.54940200
 H         -1.64840400    0.86821097    2.27870488
 H         -1.56207597    2.32260489    1.25591505
