48
wb97x-d4 ma-def2-tzvp(-f) cpcm(dmso) E: -1056.422596657921, G: -1056.04562201
 C          2.48633695   -1.87309206    0.51024097
 C          1.19864094   -1.35981405    1.17913795
 O          0.11158700   -2.23987103    0.98282301
 C          0.90026498    0.08400800    0.72578502
 O          1.16007698    1.05061495    1.68442404
 C          1.56086898    0.50171399   -0.58222902
 C          3.07283497    0.20228900   -0.53252798
 C          3.89537406    1.41220903   -0.11852500
 O          3.77678108    2.38363695   -1.15432298
 O          3.41919208   -0.82948297    0.40434599
 O          0.91029000   -0.10546300   -1.68865001
 O          2.13791990   -2.41938496   -0.73669797
 H          3.37971091   -0.10455100   -1.53843296
 H          2.96297002   -2.63746309    1.13016498
 H         -0.26418200    0.09015700    0.48517001
 H          1.42920995    1.57739902   -0.70557302
 C          3.18793011   -3.18216300   -1.34474099
 H          0.19661000   -2.62421393    0.09933100
 H          3.52552295    1.80464494    0.83337599
 H          4.93673515    1.09800303    0.00792500
 H          1.19893801   -1.03076303   -1.72462106
 H          0.95466101    0.71001899    2.56587601
 H          4.17547321    3.20354199   -0.84303802
 H          3.50983310   -3.97715712   -0.66594797
 H          4.03683710   -2.54116392   -1.59341097
 H          2.77312207   -3.61529708   -2.25323606
 H          1.39205301   -1.33074796    2.25435305
 C         -3.83523107    0.65842700    1.44198704
 C         -2.30577493    0.44312301    1.61808395
 C         -4.10300922    1.06298900   -0.01204800
 C         -3.76327705   -0.12110500   -0.92525703
 C         -2.33029008   -0.61609900   -0.58183599
 N         -1.72245896    0.41456401    0.27094200
 H         -4.16876221    1.43658996    2.13031507
 H         -1.83658004    1.26116300    2.16434789
 H         -5.14915705    1.34727395   -0.13638000
 H         -4.46812391   -0.94090801   -0.77697903
 H         -1.70786297   -0.73395801   -1.46692097
 H         -4.37047577   -0.26220301    1.68314505
 H         -2.07582593   -0.50229502    2.10830998
 C         -3.18968391    2.24008393   -0.37190700
 H         -3.81194210    0.18432599   -1.97250795
 H         -2.33971095   -1.54638505   -0.01761500
 C         -1.71991599    1.73782098   -0.36486799
 H         -3.31296301    3.04943800    0.35059100
 H         -3.42866492    2.62869501   -1.36308396
 H         -1.06590998    2.39230299    0.21158899
 H         -1.31997597    1.61854899   -1.37090600
