48
wb97x-d4 ma-def2-tzvp(-f) cpcm(dmso) E: -1056.422944208915, G: -1056.0454916200001
 C          2.66645288   -1.34818101    1.09274197
 C          1.39058495   -0.62807602    1.56291103
 O          0.38282999   -1.54265904    1.94197905
 C          0.93430001    0.39160001    0.50569999
 O          1.19586694    1.66950500    0.97294402
 C          1.45040596    0.13591500   -0.90931898
 C          2.98382998   -0.03192700   -0.88192499
 C          3.72310805    1.26461005   -1.20017600
 O          3.44117999    1.71485603   -2.51861310
 O          3.49075603   -0.45337400    0.39261100
 O          0.77663898   -0.96670800   -1.49479198
 O          2.27933097   -2.45074391    0.31086600
 H          3.24160600   -0.78085101   -1.64006495
 H          3.25412107   -1.68905795    1.94956100
 H         -0.25790700    0.25896099    0.41832700
 H          1.21649694    0.99828202   -1.53852797
 C          3.34950209   -3.36345792    0.03562500
 H          0.43267399   -2.30267596    1.34592700
 H          3.40439606    2.05539298   -0.51872402
 H          4.79532480    1.09941494   -1.05658197
 H          1.14683902   -1.77407801   -1.10365605
 H          1.06282496    2.31549597    0.26477799
 H          3.87595391    1.12077701   -3.14207697
 H          4.12186909   -2.88189912   -0.56842703
 H          2.91571999   -4.19618797   -0.51527798
 H          3.78242397   -3.72153091    0.97397900
 H          1.65166605   -0.05060800    2.45124412
 C         -3.94515109   -0.52616501    0.33265999
 C         -2.42027402   -0.82915801    0.32550499
 C         -4.15575981    0.95851803    0.01590800
 C         -3.41495991    1.29536903   -1.28200305
 C         -1.89072800    1.12770796   -1.03630602
 N         -1.72725499    0.46724299    0.26708299
 H         -4.36610508   -0.76588398    1.31130004
 H         -2.09716201   -1.34408796    1.22711504
 H         -5.22030401    1.17246306   -0.09259500
 H         -3.73694491    0.62834501   -2.08418703
 H         -1.37540603    2.08742690   -0.98644203
 H         -4.43879414   -1.15284002   -0.41194800
 H         -2.11745906   -1.40368199   -0.54878300
 C         -3.56285906    1.79782403    1.15367198
 H         -3.61953402    2.32198095   -1.59015906
 H         -1.41946399    0.50179201   -1.79237199
 C         -2.09513593    1.34470296    1.38595402
 H         -4.13006783    1.65971005    2.07554412
 H         -3.58959699    2.85791492    0.89372301
 H         -1.98105800    0.77018499    2.30471802
 H         -1.40477002    2.18783402    1.40058100
