48
wb97x-d4 ma-def2-tzvp(-f) cpcm(dmso) E: -1056.420722784812, G: -1056.0454126900001
 C          2.15605092   -1.55797398    0.19599400
 C          1.33253098   -1.14077902    1.42212605
 O          0.13687100   -1.88616300    1.56485200
 C          0.95461798    0.33121201    1.28804398
 O          0.73516798    0.99814302    2.47818804
 C          1.93551195    1.10749102    0.42097700
 C          1.97217906    0.50648499   -0.99064302
 C          3.25586605    0.81867802   -1.73619795
 O          4.37311506    0.29728800   -1.01873100
 O          1.68125200   -0.89477903   -0.97079098
 O          1.57739997    2.46926904    0.28510401
 O          2.00560999   -2.92306709    0.02139900
 H          1.15644097    0.96597803   -1.55573797
 H          3.20958090   -1.30153298    0.35356900
 H         -0.11084400    0.33838999    0.69458503
 H          2.92072892    1.02539003    0.89729500
 C          2.97513294   -3.49384904   -0.86249399
 H          0.37149000   -2.82203388    1.51371706
 H          3.19399405    0.37018201   -2.73327708
 H          3.33504009    1.90642405   -1.84513795
 H          1.75174999    2.91424394    1.12309003
 H          0.35916001    0.39473999    3.13422394
 H          5.16993284    0.49012801   -1.52475905
 H          2.86307406   -3.09098005   -1.87172198
 H          2.79372191   -4.56763315   -0.87318301
 H          3.98666000   -3.29358006   -0.49537599
 H          1.96488595   -1.25468099    2.31251407
 C         -3.81282806    0.18124001    1.04225302
 C         -2.32413292    0.21483800    1.47926295
 C         -3.91541505    0.76302201   -0.37135801
 C         -3.20430303   -0.18542500   -1.34442401
 C         -1.78132796   -0.48129100   -0.79836202
 N         -1.52096605    0.49035200    0.27658299
 H         -4.40652418    0.76467001    1.74777997
 H         -2.12697101    1.01377702    2.19356894
 H         -4.96194696    0.88084698   -0.65697902
 H         -3.75196505   -1.12453794   -1.43985295
 H         -1.01356804   -0.36111701   -1.56120300
 H         -4.18178320   -0.84649700    1.05576599
 H         -1.99506497   -0.73482299    1.89431798
 C         -3.20309305    2.11951900   -0.39523301
 H         -3.13795304    0.27094701   -2.33428001
 H         -1.70080805   -1.47559202   -0.36332300
 C         -1.68524301    1.88179505   -0.17704999
 H         -3.59817100    2.76641393    0.39085299
 H         -3.35083795    2.62012792   -1.35355794
 H         -1.26836205    2.53756404    0.58547902
 H         -1.11566103    1.99718404   -1.09786999
