48
wb97x-d4 ma-def2-tzvp(-f) cpcm(dmso) E: -1056.423517815529, G: -1056.0452150800002
 C          2.44320512   -1.90694499    0.48689899
 C          1.16576505   -1.40012705    1.17523897
 O          0.06638500   -2.25653791    0.93852699
 C          0.89382398    0.06587500    0.79555798
 O          1.11670101    0.86470902    1.90750396
 C          1.59517801    0.55304301   -0.47158399
 C          3.09837890    0.21621700   -0.41164899
 C          3.94113302    1.38061500    0.10103400
 O          3.85950899    2.50349998   -0.76646698
 O          3.40644908   -0.88582301    0.45402300
 O          0.95337898    0.03366400   -1.62570405
 O          2.09435606   -2.36599898   -0.79513401
 H          3.41653895   -0.02687700   -1.43239498
 H          2.89195704   -2.72162294    1.06209004
 H         -0.26659700    0.10892400    0.51613200
 H          1.49380302    1.63874996   -0.54052299
 C          3.13544798   -3.10749292   -1.44346297
 H          0.14177400   -2.59251595    0.03474400
 H          3.57723498    1.70575500    1.07744801
 H          4.97496080    1.04028594    0.21540000
 H          1.21310496   -0.89778501   -1.70692694
 H          1.09613705    1.79904997    1.65591800
 H          4.34155083    2.29819989   -1.57658696
 H          2.71996188   -3.47577405   -2.37989807
 H          3.43989301   -3.94879293   -0.81423098
 H          3.99671412   -2.46686196   -1.64658594
 H          1.35251796   -1.40813303    2.25024700
 C         -3.85223293    0.55116701    1.44159102
 C         -2.31997299    0.37184399    1.62764704
 C         -4.11561394    1.01540303    0.00448300
 C         -3.73401189   -0.11498200   -0.95850903
 C         -2.29514289   -0.59142101   -0.61600298
 N         -1.71935296    0.41569301    0.28769499
 H         -4.21660280    1.28623199    2.16095090
 H         -1.87949300    1.17809606    2.21361399
 H         -5.16757393    1.27776694   -0.11899000
 H         -4.42039585   -0.95771700   -0.86057800
 H         -1.65922904   -0.65913397   -1.49681103
 H         -4.36333179   -0.39470401    1.63268304
 H         -2.06813407   -0.58625698    2.08076406
 C         -3.22967696    2.23002696   -0.29238501
 H         -3.77524090    0.23918299   -1.99064195
 H         -2.29169893   -1.54389405   -0.09058500
 C         -1.74801898    1.76464200   -0.29410100
 H         -3.37938190    3.00245094    0.46475601
 H         -3.46997595    2.65723205   -1.26720703
 H         -1.11664104    2.41433406    0.31253099
 H         -1.33754206    1.69673598   -1.30051994
