48
wb97x-d4 ma-def2-tzvp(-f) cpcm(dmso) E: -1056.422457601861, G: -1056.04515715
 C          2.20278001   -1.72772300   -0.07059500
 C          1.48283303   -1.14504600    1.14392304
 O          0.35622200   -1.91173995    1.52501702
 C          1.04149902    0.28881600    0.88130999
 O          1.01294100    0.97624099    2.08296299
 C          1.81205797    0.99024397   -0.25274199
 C          3.24696803    0.46673000   -0.33458501
 C          4.12257719    0.94423097    0.82618302
 O          4.24254179    2.36169004    0.84584498
 O          3.34060311   -0.96874797   -0.39988899
 O          1.13898003    0.89067501   -1.49584699
 O          1.28880894   -1.81545103   -1.13956797
 H          3.67080903    0.84600198   -1.26963902
 H          2.57867193   -2.72871804    0.16460900
 H         -0.09921900    0.22255300    0.48034099
 H          1.87013400    2.05556393   -0.02164700
 C          1.75530696   -2.63454700   -2.21718192
 H          0.66489601   -2.70721006    1.97540402
 H          3.69136190    0.65407997    1.78588200
 H          5.10126400    0.46361199    0.73402601
 H          1.09009194   -0.05651100   -1.71261799
 H          0.86802602    1.91936195    1.92149496
 H          4.80944920    2.62913609    0.11255100
 H          1.97942901   -3.64111304   -1.85137701
 H          2.64694595   -2.20198202   -2.67778492
 H          0.94886500   -2.67914200   -2.94791007
 H          2.21592498   -1.11364698    1.95652497
 C         -3.25330591    1.82369006   -0.67771298
 C         -1.77467799    1.72758603   -0.21579100
 C         -3.99072909    0.56506199   -0.20677800
 C         -3.72511101    0.38290900    1.29213500
 C         -2.22331500    0.03831500    1.48497403
 N         -1.54502106    0.33876500    0.21470401
 H         -3.29920912    1.90521896   -1.76574099
 H         -1.07475805    1.95213497   -1.01766300
 H         -5.06161404    0.66292602   -0.39156100
 H         -3.97466111    1.29789698    1.83355904
 H         -2.06459498   -1.01597202    1.69920504
 H         -3.70415902    2.72076702   -0.25027901
 H         -1.56995296    2.37285805    0.63882399
 C         -3.43022490   -0.64846498   -0.95731997
 H         -4.32949209   -0.42880800    1.70047200
 H         -1.75998199    0.63839501    2.26827407
 C         -1.88315403   -0.63076502   -0.83872902
 H         -3.70685697   -0.61487699   -2.01240396
 H         -3.82824612   -1.57155395   -0.53071499
 H         -1.40675199   -0.29483801   -1.75825799
 H         -1.47495401   -1.59860396   -0.55388701
