48
wb97x-d4 ma-def2-tzvp(-f) cpcm(dmso) E: -1056.433061999975, G: -1056.05561951
 C          2.27906299   -1.50516903   -0.49647301
 C          1.69501305   -1.83017802    0.87787402
 O          0.87612599   -2.97982311    0.83129102
 C          0.98396200   -0.60854602    1.44547105
 O          0.49244899   -0.85706699    2.70859599
 C          1.84936798    0.63813198    1.36749899
 C          2.38812995    0.83777398   -0.04856200
 C          3.37694502    1.98503399   -0.14589299
 O          4.46279001    1.86383700    0.76530498
 O          3.08133602   -0.34740099   -0.45636201
 O          1.05133295    1.73110294    1.79933405
 O          1.18795502   -1.37964404   -1.36547506
 H          1.56306505    1.04562998   -0.73617798
 H          2.94448590   -2.30868912   -0.82761300
 H         -0.00333400   -0.37918901    0.74036402
 H          2.69575691    0.48872501    2.04754710
 C          1.55327296   -1.31831503   -2.74608898
 H          0.39493600   -2.96314406   -0.00702000
 H          3.73681998    2.04675508   -1.17839301
 H          2.86493802    2.91825795    0.09471400
 H          1.61379397    2.37286901    2.24794102
 H          0.34143999   -0.00551000    3.14777493
 H          4.96910381    1.07957697    0.52143300
 H          2.09994507   -0.39677301   -2.96144795
 H          0.62514699   -1.33515799   -3.31593609
 H          2.16890407   -2.18270993   -3.01424503
 H          2.52582788   -2.05339193    1.55454898
 C         -2.64292002    1.26307499   -1.36282599
 C         -1.22410703    0.98566002   -0.79520798
 C         -3.67358398    0.54126602   -0.48986799
 C         -3.46473408    0.95799297    0.96909702
 C         -2.07094598    0.45734900    1.43473005
 N         -1.35602999   -0.04420800    0.24988300
 H         -2.70693994    0.90597498   -2.39259100
 H         -0.54937702    0.60294199   -1.55860698
 H         -4.68403006    0.79717898   -0.81287301
 H         -3.51811409    2.04446101    1.06245005
 H         -2.14802289   -0.36600399    2.14363408
 H         -2.82454300    2.33911705   -1.36457002
 H         -0.78728700    1.86879599   -0.33120799
 C         -3.44754195   -0.96890002   -0.61185098
 H         -4.23513412    0.52395898    1.60855901
 H         -1.47629702    1.25761104    1.87178898
 C         -1.96530998   -1.28022099   -0.26943800
 H         -3.66043901   -1.30879295   -1.62669897
 H         -4.10775805   -1.50668395    0.07145000
 H         -1.39638996   -1.58187497   -1.14717805
 H         -1.87907600   -2.04568291    0.50132102
