48
wb97x-d4 ma-def2-tzvp(-f) cpcm(dmso) E: -1056.421169882238, G: -1056.04500772
 C          2.11731911   -1.12143803    0.37613100
 C          2.15616107    0.20260300    1.16226399
 O          1.86959100    0.04452100    2.53590703
 C          1.21698701    1.20727003    0.50852501
 O          1.00756800    2.33886600    1.26675403
 C          1.70309997    1.55012000   -0.88813001
 C          2.04861999    0.25768599   -1.65581596
 C          3.48891997    0.20526101   -2.12928605
 O          4.36733484    0.30356199   -1.01067495
 O          1.65256798   -0.92181998   -0.95076001
 O          0.73540598    2.26936793   -1.63946104
 O          1.19316804   -1.94815695    1.01219702
 H          1.42319202    0.24814101   -2.55043697
 H          3.10196996   -1.60059404    0.35888499
 H          0.12271000    0.68136603    0.36695999
 H          2.60438609    2.16120911   -0.76341498
 C          1.24652898   -3.31429005    0.59495997
 H          1.30606902   -0.73824900    2.62586999
 H          3.64767289   -0.73619097   -2.66560793
 H          3.64879704    1.03808904   -2.82440591
 H          0.67923200    3.16445303   -1.28258502
 H          1.00008500    2.07038498    2.19999909
 H          5.27433395    0.29188299   -1.33519900
 H          2.26259398   -3.70474911    0.70988101
 H          0.92709899   -3.41377997   -0.44488701
 H          0.56512201   -3.86489701    1.24204898
 H          3.16251397    0.62262702    1.09015596
 C         -3.16770291   -0.83205402    1.31965101
 C         -1.70117903   -0.35655901    1.49665201
 C         -3.77311707   -0.09577200    0.12005200
 C         -3.05994606   -0.56501597   -1.15283000
 C         -1.52751100   -0.44083801   -0.93731999
 N         -1.32321596    0.37179101    0.27311701
 H         -3.72672105   -0.61752200    2.23204708
 H         -1.58900702    0.33228701    2.33400702
 H         -4.84303188   -0.29868200    0.05085100
 H         -3.30611610   -1.60510600   -1.37338996
 H         -1.03746605    0.06021700   -1.77014995
 H         -3.19208908   -1.91101599    1.15234196
 H         -1.01488197   -1.19149804    1.61836600
 C         -3.52783108    1.40644801    0.29967800
 H         -3.36915398    0.04469400   -2.00458789
 H         -1.05259502   -1.40501297   -0.76845300
 C         -2.00423408    1.67346895    0.18199000
 H         -3.89358497    1.73285496    1.27553201
 H         -4.04970503    1.98138404   -0.46718499
 H         -1.63409400    2.30909991    0.98565900
 H         -1.73586094    2.11358500   -0.77590603
