48
wb97x-d4 ma-def2-tzvp(-f) cpcm(dmso) E: -1056.421280172261, G: -1056.04474664
 C          2.05236912   -1.23531604    0.37980199
 C          2.09117889   -0.00379800    1.30399203
 O          1.72229505   -0.29073301    2.63643909
 C          1.22467804    1.09908104    0.70990002
 O          1.00026798    2.14837289    1.57407200
 C          1.80812001    1.56997395   -0.61062199
 C          2.15380907    0.35130799   -1.49087501
 C          3.61902189    0.28596601   -1.87859201
 O          4.42624617    0.24456300   -0.70400500
 O          1.66872597   -0.87551999   -0.93919897
 O          0.91414601    2.40342689   -1.33485997
 O          1.06765103   -2.08780694    0.87484902
 H          1.58700800    0.46234000   -2.41712999
 H          3.01972508   -1.74870896    0.35995901
 H          0.12802100    0.62972802    0.44351599
 H          2.72084999    2.12680292   -0.36940199
 C          1.07255399   -3.38969588    0.28455299
 H          1.11382699   -1.04407799    2.61409903
 H          3.78057289   -0.60648203   -2.49225307
 H          3.85114288    1.17367995   -2.47891092
 H          0.86769700    3.25789189   -0.88828701
 H          0.93261099    1.78086495    2.47059989
 H          5.35119581    0.22385700   -0.97268200
 H          0.36536399   -3.99254799    0.85266501
 H          2.07209611   -3.83105206    0.35035500
 H          0.75866401   -3.34145093   -0.76055098
 H          3.11334491    0.38151100    1.33004701
 C         -3.27011108   -0.82262099    1.05514300
 C         -1.80199099   -0.42490199    1.36088800
 C         -3.77178907    0.03893600   -0.10892000
 C         -2.99773788   -0.34854901   -1.37384295
 C         -1.47853100   -0.31647000   -1.05429196
 N         -1.32034600    0.38590601    0.22923800
 H         -3.87750006   -0.66462898    1.94795096
 H         -1.71898997    0.18672800    2.25931001
 H         -4.84201717   -0.11188600   -0.25891599
 H         -3.27149701   -1.35201097   -1.70435703
 H         -0.91366899    0.22332101   -1.81202495
 H         -3.32235003   -1.88132501    0.79212099
 H         -1.15486503   -1.29445302    1.45203996
 C         -3.48227596    1.50810802    0.21674800
 H         -3.22490811    0.34919700   -2.18272805
 H         -1.05834496   -1.31325102   -0.93674302
 C         -1.94555295    1.71878600    0.20919400
 H         -3.89415312    1.76508904    1.19503295
 H         -3.93446994    2.16858602   -0.52510798
 H         -1.59903002    2.26950407    1.08314800
 H         -1.60305595    2.22375798   -0.69136101
