48
wb97x-d4 ma-def2-tzvp(-f) cpcm(dmso) E: -1056.421027599878, G: -1056.0443678400002
 C          2.04107189   -1.24110103    0.21024001
 C          2.08481908   -0.09865700    1.24169195
 O          1.70124400   -0.50760603    2.53759909
 C          1.23157096    1.06075799    0.74485302
 O          1.00833094    2.03057098    1.69824898
 C          1.83458304    1.64194500   -0.52051902
 C          2.15635395    0.50722498   -1.51382995
 C          3.61706305    0.46703300   -1.92082000
 O          4.42981815    0.28980201   -0.76260298
 O          1.67154598   -0.76421201   -1.07425404
 O          0.96805102    2.56498909   -1.16440594
 O          1.04063201   -2.12038112    0.62369198
 H          1.57763398    0.70802999   -2.41738510
 H          3.00194907   -1.76343000    0.15317801
 H          0.13418800    0.62661201    0.43212599
 H          2.75932097    2.14850307   -0.22121200
 C          1.04243302   -3.37402797   -0.06340700
 H          1.12162101   -1.27747297    2.43687391
 H          3.76377106   -0.35659900   -2.62734795
 H          3.85686493    1.41119099   -2.42426491
 H          0.95715499    3.38038611   -0.64819598
 H          0.92443401    1.58587801    2.55745506
 H          5.35357094    0.30028000   -1.03604805
 H          0.74903202   -3.24291301   -1.10765600
 H          0.31725600   -4.00860596    0.44415799
 H          2.03535295   -3.83166099   -0.01296000
 H          3.11010003    0.27418599    1.30876505
 C         -3.28793693   -0.48259401    1.41922796
 C         -1.73955297   -0.38786799    1.44999897
 C         -3.77495003   -0.01984600    0.04219700
 C         -3.01165605   -0.79567897   -1.03675497
 C         -1.51541305   -0.38456401   -0.98180699
 N         -1.31833303    0.37459701    0.26339799
 H         -3.71842694    0.14466099    2.20261312
 H         -1.37938702    0.13699800    2.33508301
 H         -4.84791517   -0.19227500   -0.05644500
 H         -3.10848308   -1.87029898   -0.86795902
 H         -1.23555601    0.26702100   -1.80907500
 H         -3.58599901   -1.51496005    1.60951805
 H         -1.26736999   -1.36671305    1.39288998
 C         -3.46126199    1.47183597   -0.11353100
 H         -3.40830588   -0.57057399   -2.02825999
 H         -0.85135800   -1.24423206   -0.96354097
 C         -1.95980000    1.69887602    0.21025801
 H         -4.07002687    2.07000399    0.56643599
 H         -3.67430305    1.79681599   -1.13412905
 H         -1.81690204    2.17246509    1.18083298
 H         -1.45682895    2.28560710   -0.55491900
