48
wb97x-d4 ma-def2-tzvp(-f) cpcm(dmso) E: -1056.421361869328, G: -1056.04366387
 C          2.33080697   -2.05660295   -0.13372700
 C          1.00171006   -1.80387402    0.60300899
 O         -0.12406000   -2.33254194   -0.07240800
 C          0.78395700   -0.30614600    0.83914202
 O          0.84451801   -0.05163800    2.20081711
 C          1.65497005    0.62055099   -0.00909900
 C          3.13292289    0.19261800    0.08531800
 C          3.89470792    0.95515102    1.16573501
 O          3.93681693    2.34871507    0.88605702
 O          3.31147408   -1.19596601    0.39825699
 O          1.17226696    0.67676198   -1.34037197
 O          2.15197992   -1.88989902   -1.51302600
 H          3.59191298    0.40596801   -0.88753301
 H          2.69135904   -3.06954694    0.07236900
 H         -0.32681099   -0.08162100    0.45484799
 H          1.57299304    1.63793302    0.38098300
 C          3.28623295   -2.29992604   -2.28450799
 H         -0.03155300   -3.29206300   -0.11939900
 H          3.39601493    0.83894497    2.12977409
 H          4.90192413    0.53506398    1.24714196
 H          1.39901304   -0.16986901   -1.76082003
 H          0.86603898    0.90252501    2.35955906
 H          4.53162909    2.49101806    0.14015099
 H          3.00075889   -2.20758605   -3.33132911
 H          3.53467202   -3.34130597   -2.05837798
 H          4.15105677   -1.66387403   -2.08059692
 H          1.10924399   -2.26162195    1.59069705
 C         -3.16226292    2.33125710    0.31635699
 C         -1.69082296    1.83379698    0.30806699
 C         -4.06864405    1.16506696   -0.09260300
 C         -4.01012182    0.08976400    0.99844199
 C         -2.51934290   -0.24818701    1.27765203
 N         -1.73111796    0.36882499    0.20243099
 H         -3.26173496    3.16468406   -0.38088799
 H         -1.13184595    2.21003103   -0.54757202
 H         -5.09462881    1.51371205   -0.22159301
 H         -4.47632408    0.44482201    1.91889095
 H         -2.32818007   -1.32008696    1.26257598
 H         -3.43070292    2.68709111    1.31310403
 H         -1.16962397    2.09969997    1.22795904
 C         -3.54149508    0.57071298   -1.40315104
 H         -4.53950691   -0.80769801    0.67185998
 H         -2.17355299    0.16981401    2.22273803
 C         -2.15706611   -0.08124600   -1.13129306
 H         -3.44504690    1.35257995   -2.15932989
 H         -4.22400618   -0.18991099   -1.78617501
 H         -1.40285099    0.23145700   -1.85057795
 H         -2.20767498   -1.16735494   -1.10955906
