48
wb97x-d4 ma-def2-tzvp(-f) cpcm(dmso) E: -1056.419632821681, G: -1056.04319996
 C          2.86575198   -1.09139097    0.94876403
 C          1.38375604   -0.64107102    1.19405997
 O          0.50053501   -1.73576605    1.29356396
 C          0.96662003    0.35348001    0.10443100
 O          1.28680599    1.65060198    0.44782799
 C          1.44153702   -0.06256500   -1.27523899
 C          2.98446608   -0.17980300   -1.26227498
 C          3.64606810    0.97844201   -1.97767997
 O          3.20552492    2.21363902   -1.39733803
 O          3.51525092   -0.21411300    0.06676000
 O          0.79661101   -1.30157101   -1.55096996
 O          2.92832088   -2.40020609    0.44300899
 H          3.25989389   -1.10024297   -1.78781903
 H          3.42711592   -1.02572000    1.88389897
 H         -0.21594200    0.26997799    0.08157400
 H          1.13961506    0.68856198   -2.01262307
 C          3.19988489   -3.38740492    1.43876004
 H          0.62749898   -2.27069402    0.49727100
 H          4.73264694    0.89157599   -1.88888395
 H          3.36852288    0.93461198   -3.03426290
 H          1.09866703   -1.62174904   -2.40913296
 H          1.83324099    2.05651498   -0.25790200
 H          3.27614188    2.91388202   -2.05537796
 H          4.15832901   -3.18404198    1.92817795
 H          3.24926591   -4.34642220    0.92385203
 H          2.40530205   -3.41926003    2.18909693
 H          1.33899200   -0.11239400    2.14708710
 C         -3.91985607   -0.43971401   -0.27257100
 C         -2.40017700   -0.76450300   -0.21635300
 C         -4.14691687    0.94833601    0.33801299
 C         -3.47058511    1.99746895   -0.55324799
 C         -1.98888695    1.57727695   -0.76761001
 N         -1.71526301    0.47760201    0.16299300
 H         -4.46920490   -1.20137596    0.28318399
 H         -2.16455293   -1.51293397    0.53763998
 H         -5.21577120    1.15484798    0.41415000
 H         -3.96800494    2.06175399   -1.52234304
 H         -1.29522300    2.38926601   -0.54850101
 H         -4.26671410   -0.45730901   -1.30777597
 H         -2.01009297   -1.08797801   -1.17992496
 C         -3.50204802    0.99111801    1.72785199
 H         -3.51543093    2.98084903   -0.08127500
 H         -1.80734503    1.20784295   -1.77678895
 C         -1.96313000    0.85027498    1.56054902
 H         -3.88467407    0.17727400    2.34690690
 H         -3.72445107    1.93449104    2.22903895
 H         -1.54941297    0.06971100    2.19778705
 H         -1.44269502    1.78882897    1.74965203
