48
wb97x-d4 ma-def2-tzvp(-f) cpcm(dmso) E: -1056.417768360352, G: -1056.0409724600001
 C          2.67890501   -1.70769000    0.00652900
 C          1.14788604   -1.55276501   -0.10779600
 O          0.64549601   -1.71795404   -1.41605496
 C          0.83736098   -0.16457200    0.46081001
 O          0.90525401   -0.13816801    1.83678198
 C          1.59642506    0.94843400   -0.26115799
 C          3.09762001    0.63243097   -0.40748200
 C          3.94615507    1.10073900    0.76569003
 O          3.44473290    0.61358202    2.01700211
 O          3.32248807   -0.72226799   -0.79435301
 O          0.97723103    1.04199100   -1.54522300
 O          3.18389893   -2.95655990   -0.33145800
 H          3.45901608    1.21763504   -1.25836504
 H          2.94934297   -1.57427204    1.05766904
 H         -0.31813300    0.03015700    0.18128200
 H          1.47729099    1.88756204    0.28990999
 C          3.02459693   -3.40813398   -1.68366504
 H          0.86338800   -0.92167902   -1.92350399
 H          4.97241688    0.75450200    0.61437398
 H          3.93659592    2.19516611    0.76234502
 H          1.42149401    1.72747195   -2.05954003
 H          1.71886396    0.33703899    2.11382389
 H          3.89655304    1.07605100    2.73266006
 H          3.76649404   -4.19531107   -1.82034004
 H          3.21497798   -2.60403609   -2.39538503
 H          2.02475595   -3.81199002   -1.84609199
 H          0.67913002   -2.30883098    0.52560699
 C         -3.30552697    2.12976003    0.77509999
 C         -1.81006801    1.78909194    0.53465700
 C         -4.15678883    0.96313500    0.26171699
 C         -3.88187504   -0.26928699    1.13031900
 C         -2.34789801   -0.50153202    1.18112898
 N         -1.74222302    0.36868799    0.16208100
 H         -3.55258107    3.05156302    0.24600300
 H         -1.38315701    2.36380291   -0.28638399
 H         -5.21551800    1.22375000    0.30421200
 H         -4.25630188   -0.11994100    2.14427090
 H         -2.07870793   -1.53192902    0.94884998
 H         -3.48640299    2.28959799    1.83987200
 H         -1.20653701    1.93358803    1.43099105
 C         -3.74659991    0.65245700   -1.18244696
 H         -4.37798691   -1.14616096    0.70952600
 H         -1.92180204   -0.22510999    2.14479804
 C         -2.28748012    0.11884600   -1.18184197
 H         -3.81390309    1.55379498   -1.79523802
 H         -4.40326881   -0.10314600   -1.61692703
 H         -1.65649796    0.63446802   -1.90324998
 H         -2.23912597   -0.95397198   -1.36150205
