48
wb97x-d4 ma-def2-tzvp(-f) cpcm(dmso) E: -1056.431955509292, G: -1056.05558623
 C          2.21412992   -1.45196903   -0.63954699
 C          1.63827097   -1.92787099    0.69213402
 O          0.76719999   -3.01595592    0.46665001
 C          0.96180302   -0.77241200    1.41185904
 O          0.46472499   -1.18096900    2.63230491
 C          1.84255505    0.46366301    1.49755704
 C          2.42962503    0.80147898    0.12712701
 C          3.49237895    1.87989199    0.21519500
 O          3.97623610    2.24810004   -1.07007098
 O          3.07754707   -0.35412100   -0.41517100
 O          1.03633595    1.51399100    2.01417899
 O          1.15521395   -1.13575900   -1.49012899
 H          1.63472795    1.13317502   -0.54674798
 H          2.84643698   -2.23016405   -1.07972002
 H         -0.01809600   -0.44747299    0.73976201
 H          2.66209412    0.23284800    2.19022989
 C          1.56770396   -0.82635897   -2.82170296
 H          0.64659399   -3.48410797    1.30149603
 H          3.06315804    2.77879190    0.66050500
 H          4.31107283    1.52645504    0.85415500
 H          1.57102096    2.07000899    2.59176302
 H          0.30412599   -0.39573199    3.17820597
 H          4.34595585    1.45566905   -1.47864401
 H          2.10778308    0.12368200   -2.85427809
 H          0.66041702   -0.75087899   -3.42028189
 H          2.20563293   -1.62287104   -3.21862411
 H          2.48936796   -2.23599291    1.31250000
 C         -2.61242104    1.55262005   -1.06741798
 C         -1.19282198    1.06472504   -0.66945899
 C         -3.64582896    0.57405400   -0.50221002
 C         -3.57007289    0.60706598    1.02733195
 C         -2.10798597    0.31093901    1.46118903
 N         -1.35216796   -0.06743500    0.25854999
 H         -2.68538809    1.60087097   -2.15520310
 H         -0.62677902    0.70728302   -1.52657497
 H         -4.64743423    0.85427701   -0.83285397
 H         -3.86546493    1.58747697    1.40458703
 H         -2.05490303   -0.51775098    2.16632009
 H         -2.78544688    2.55517411   -0.67134601
 H         -0.62651998    1.84030199   -0.15654200
 C         -3.30522490   -0.83818197   -0.98739803
 H         -4.24322414   -0.13794900    1.45570898
 H         -1.62249100    1.18411005    1.89427304
 C         -1.92874098   -1.25149906   -0.39957401
 H         -3.26450300   -0.86129701   -2.07825899
 H         -4.06572008   -1.55001497   -0.66184503
 H         -1.23013401   -1.57871103   -1.16512001
 H         -2.02073503   -2.03117704    0.35513499
