48
wb97x-d4 ma-def2-tzvp(-f) cpcm(dmso) E: -1056.417774038385, G: -1056.0409577500002
 C          2.97374511   -0.80899101    0.80691499
 C          1.45690501   -0.72926599    1.08255100
 O          0.79181999   -1.97271097    1.03442395
 C          0.91325903    0.26044899    0.04795500
 O          1.22110498    1.56513202    0.36713600
 C          1.22761500   -0.16034900   -1.38779402
 C          2.71020389   -0.53695297   -1.57544804
 C          3.60697389    0.63459498   -1.94838405
 O          3.47515202    1.72520006   -1.02799702
 O          3.19759488   -1.33431995   -0.49755701
 O          0.39252800   -1.29404700   -1.62946904
 O          3.71403503   -1.54942501    1.71871901
 H          2.75487089   -1.20274496   -2.44260693
 H          3.37809706    0.20440200    0.87933201
 H         -0.28715801    0.17704301    0.13012800
 H          0.97232002    0.65519500   -2.07286811
 C          3.42972898   -2.94926405    1.84572697
 H          0.70639300   -2.22938991    0.10384600
 H          4.64364195    0.28687200   -1.96963298
 H          3.32094908    0.96037900   -2.95329809
 H          0.55805898   -1.61999094   -2.52278399
 H          1.92055297    1.89431298   -0.23861900
 H          3.91686201    2.49844193   -1.39843202
 H          2.54781795   -3.11494708    2.46540093
 H          4.30526209   -3.38429189    2.32816792
 H          3.28460407   -3.41475105    0.87001097
 H          1.31327295   -0.31352901    2.08216691
 C         -3.96786594   -0.45727301    0.01559600
 C         -2.46148491   -0.82110900    0.11721900
 C         -4.13748503    1.02894795    0.35066700
 C         -3.45919299    1.86158502   -0.74432802
 C         -2.00778389    1.34125102   -0.92615402
 N         -1.72145605    0.44849801    0.20600100
 H         -4.53366995   -1.07814395    0.71217197
 H         -2.23484802   -1.39545906    1.01431894
 H         -5.19689083    1.28256500    0.41338599
 H         -3.99391794    1.76844299   -1.69089198
 H         -1.27675104    2.15001202   -0.91346198
 H         -4.33326006   -0.65957302   -0.99339598
 H         -2.10352492   -1.36052096   -0.75721300
 C         -3.44499993    1.31664503    1.68753004
 H         -3.44654703    2.91656089   -0.46308699
 H         -1.88971102    0.76016998   -1.84035099
 C         -1.91677499    1.11801600    1.50089097
 H         -3.81782699    0.63981903    2.45899296
 H         -3.63696194    2.34074998    2.01159692
 H         -1.48523498    0.48643401    2.27733588
 H         -1.38002896    2.06532788    1.46558702
