48
wb97x-d4 ma-def2-tzvp(-f) cpcm(dmso) E: -1056.417620844057, G: -1056.03970338
 C          2.66727495   -1.65432203    0.23482400
 C          1.13716996   -1.48655295    0.12689900
 O          0.59820402   -1.87560594   -1.11792898
 C          0.86985302   -0.00974100    0.43507600
 O          0.98187602    0.26694000    1.77993202
 C          1.62904894    0.92827201   -0.50265300
 C          3.11861110    0.55245799   -0.62784398
 C          4.01405191    1.21393502    0.41047800
 O          3.53005505    1.01042604    1.74426997
 O          3.30506992   -0.85615402   -0.75703102
 O          0.97402298    0.79186100   -1.76469600
 O          3.14170504   -2.95487595    0.13176601
 H          3.46386409    0.95518500   -1.58465397
 H          2.96915102   -1.32696104    1.23369396
 H         -0.29087499    0.15132099    0.15688901
 H          1.54405105    1.95719802   -0.13733400
 C          2.90548992   -3.66860008   -1.08931601
 H          0.81770098   -1.18854797   -1.76548195
 H          5.02315998    0.80388802    0.31219199
 H          4.04262686    2.28472710    0.18626100
 H          1.42361796    1.34822798   -2.41233802
 H          1.80206704    0.78223097    1.94000006
 H          4.01104498    1.59556103    2.34129810
 H          3.62468410   -4.48802710   -1.09454405
 H          3.07390404   -3.03327894   -1.95964003
 H          1.89138603   -4.06883287   -1.11864495
 H          0.66947198   -2.10149288    0.89905298
 C         -3.37191200    2.17086506    0.55474401
 C         -1.86807501    1.79396296    0.64700401
 C         -4.17192316    0.90317798    0.23665000
 C         -3.80828500   -0.17849500    1.26039898
 C         -2.31971693   -0.57080400    1.05346894
 N         -1.73228502    0.42083800    0.13989501
 H         -3.52111411    2.91776800   -0.22759400
 H         -1.24343395    2.44390297    0.03466800
 H         -5.24160480    1.11463904    0.27845001
 H         -3.95883203    0.19528700    2.27514791
 H         -2.21253800   -1.54963195    0.58681101
 H         -3.69351411    2.60290408    1.50367105
 H         -1.50333798    1.80314004    1.67361498
 C         -3.78539491    0.40867400   -1.16174698
 H         -4.43299484   -1.06328499    1.12789297
 H         -1.75602901   -0.54978597    1.98597896
 C         -2.23899794    0.27999499   -1.23472404
 H         -4.12258720    1.10989404   -1.92689204
 H         -4.24946117   -0.55974197   -1.36007202
 H         -1.78503299    1.06693006   -1.83364797
 H         -1.92121100   -0.68947399   -1.61424696
