48
wb97x-d4 ma-def2-tzvp(-f) cpcm(dmso) E: -1056.43191719789, G: -1056.055558
 C          2.21111107   -1.30484700   -0.93555599
 C          1.41356003   -2.20328498    0.00620600
 O          0.53135699   -3.01006293   -0.74484801
 C          0.70054799   -1.36136699    1.05185902
 O         -0.01233700   -2.16290092    1.91906595
 C          1.63072395   -0.38003299    1.74686301
 C          2.43027711    0.41348901    0.71301800
 C          3.52162004    1.24983597    1.35277498
 O          4.19986105    2.05222797    0.39411899
 O          3.08857489   -0.49174500   -0.17935300
 O          0.82035500    0.45509601    2.56255507
 O          1.31844401   -0.55841202   -1.70409501
 H          1.75887704    1.06913102    0.15097500
 H          2.86066508   -1.91085100   -1.57541096
 H         -0.13590100   -0.67641199    0.46187401
 H          2.32351589   -0.96616697    2.36415911
 C          1.95144200    0.15729500   -2.76571202
 H          0.24921200   -3.74634910   -0.18915400
 H          3.07775497    1.93357301    2.07802510
 H          4.22351313    0.58870399    1.87579000
 H          1.30229294    0.68032300    3.36629009
 H         -0.21010500   -1.65248406    2.71941805
 H          4.60102892    1.45744503   -0.25153801
 H          1.15564597    0.61237401   -3.35442591
 H          2.52933311   -0.52806997   -3.39458489
 H          2.61031604    0.93743002   -2.37504005
 H          2.14282489   -2.82371306    0.54221600
 C         -2.33875203    2.02761793   -0.90635800
 C         -1.04162598    1.38430703   -0.34495500
 C         -3.52221394    1.11082304   -0.58133000
 C         -3.50879788    0.80300403    0.91921502
 C         -2.24158597   -0.03313100    1.23854005
 N         -1.37146604    0.00455400    0.05211100
 H         -2.25042796    2.15972495   -1.98669505
 H         -0.25166100    1.33940995   -1.09152997
 H         -4.46026611    1.59488297   -0.85790700
 H         -3.49617505    1.73147500    1.49373496
 H         -2.48153806   -1.07728696    1.43490100
 H         -2.47532606    3.01154494   -0.45446599
 H         -0.67699599    1.90175700    0.54139102
 C         -3.35335398   -0.20034900   -1.35655105
 H         -4.39566183    0.23653500    1.20769203
 H         -1.68429697    0.37565500    2.07953405
 C         -1.93890095   -0.77109998   -1.06461799
 H         -3.45586705   -0.03044800   -2.42971301
 H         -4.11690187   -0.91946101   -1.05284905
 H         -1.26399004   -0.66264403   -1.91072202
 H         -1.96870399   -1.81709898   -0.76491600
