48
wb97x-d4 ma-def2-tzvp(-f) cpcm(dmso) E: -1056.433080018418, G: -1056.05539698
 C          2.24153399   -1.40536797    0.78437197
 C          1.89772499   -0.32673100    1.81159198
 O          1.14663398   -0.85472202    2.88392806
 C          1.21667504    0.84837800    1.12190104
 O          0.92789799    1.85460305    2.01759005
 C          2.00112796    1.32122803   -0.09174500
 C          2.30812502    0.15287600   -1.02746999
 C          3.23011494    0.53980702   -2.16986799
 O          4.46688080    1.07960701   -1.71942496
 O          2.97749901   -0.87979001   -0.29502299
 O          1.22522295    2.32576299   -0.72911298
 O          1.02144694   -1.96738994    0.38737601
 H          1.37877798   -0.23143700   -1.45716703
 H          2.88773608   -2.16662693    1.23287594
 H          0.12720700    0.46158901    0.68939698
 H          2.94546509    1.73892903    0.27528501
 C          1.15545702   -3.17094588   -0.37210500
 H          0.54393703   -1.51823902    2.52166390
 H          3.39477110   -0.34214899   -2.79794312
 H          2.74837208    1.30830705   -2.77663589
 H          1.81536901    2.98754692   -1.10744798
 H          0.79871500    2.67674398    1.51919699
 H          4.92796803    0.38859501   -1.22856200
 H          1.60969305   -2.96645308   -1.34490001
 H          0.14969400   -3.56502604   -0.51277602
 H          1.76483595   -3.89801311    0.17387199
 H          2.83405399    0.05410900    2.23109007
 C         -3.43845010   -0.63653898    0.96367198
 C         -1.90631604   -0.65329200    1.21288705
 C         -3.72091389    0.19727300   -0.28945300
 C         -2.86050010   -0.33380300   -1.43917000
 C         -1.36624396   -0.08675300   -1.09848297
 N         -1.29591095    0.33843499    0.31054100
 H         -3.95231700   -0.20786500    1.82639503
 H         -1.65896404   -0.37426901    2.23664093
 H         -4.77844191    0.13641600   -0.55165499
 H         -3.03727508   -1.40195298   -1.58029199
 H         -0.93306100    0.70875800   -1.70332301
 H         -3.79066491   -1.66113198    0.83316898
 H         -1.46481395   -1.62091005    0.98158699
 C         -3.32871604    1.65160799   -0.01198800
 H         -3.10485697    0.17695400   -2.37210011
 H         -0.77237201   -0.99223298   -1.20521200
 C         -1.86707604    1.68070698    0.51163697
 H         -3.98724198    2.09357405    0.73750299
 H         -3.40749192    2.24456692   -0.92549402
 H         -1.81879997    1.90092802    1.57751596
 H         -1.25250995    2.39433789   -0.03433700
