48
wb97x-d4 ma-def2-tzvp(-f) cpcm(dmso) E: -1056.431898361279, G: -1056.0553596500001
 C          2.01373506   -1.71776402    0.57132500
 C          1.57487297   -0.94618702    1.82127595
 O          0.59023601   -1.63092601    2.56824398
 C          1.05331099    0.42263001    1.43148100
 O          0.69730699    1.16228604    2.54001403
 C          2.00411010    1.16008997    0.50150299
 C          2.43572402    0.27530900   -0.66765702
 C          3.53841591    0.90120798   -1.50267994
 O          4.69194412    1.22733200   -0.73608100
 O          2.95654202   -0.95684099   -0.15976700
 O          1.32964897    2.33457899    0.06943700
 O          0.88042301   -2.02295995   -0.18139400
 H          1.58064699    0.08254000   -1.32254303
 H          2.54550290   -2.63185310    0.85813701
 H          0.01524700    0.25178999    0.79068398
 H          2.89127994    1.42282498    1.08885098
 C          1.14598596   -2.89393497   -1.28082502
 H          1.02858400   -2.30712795    3.09848809
 H          3.79208994    0.21225300   -2.31550002
 H          3.17549706    1.83165896   -1.94293797
 H          1.97436595    3.03997588   -0.05630000
 H          0.66785699    2.09655404    2.28105903
 H          5.05334187    0.40515801   -0.38339001
 H          1.66462398   -3.79500294   -0.93650001
 H          1.75116301   -2.39385200   -2.04180598
 H          0.17992599   -3.16651106   -1.70469797
 H          2.47496200   -0.78165001    2.42654395
 C         -3.45626712   -0.88336301    0.01009600
 C         -2.06552410   -0.88268501    0.69889098
 C         -3.67518091    0.47773099   -0.65827399
 C         -2.66096091    0.63675201   -1.79527903
 C         -1.23968899    0.36279699   -1.23501003
 N         -1.34537005    0.31622201    0.23415400
 H         -4.22734213   -1.07590699    0.75805002
 H         -2.14403892   -0.81472301    1.78320801
 H         -4.69209099    0.54721898   -1.04803300
 H         -2.87021208   -0.06866200   -2.60118890
 H         -0.54142803    1.15531802   -1.49847496
 H         -3.50106597   -1.68020499   -0.73541200
 H         -1.46950805   -1.75310194    0.43700400
 C         -3.42968988    1.57868302    0.37818301
 H         -2.71078897    1.64696300   -2.20674610
 H         -0.84415400   -0.59604698   -1.56425095
 C         -1.93049705    1.55065000    0.78031200
 H         -4.05585909    1.41571999    1.25768805
 H         -3.67108297    2.56006098   -0.03343300
 H         -1.80083394    1.53588104    1.86197305
 H         -1.37576497    2.38911796    0.36157900
