48
wb97x-d4 ma-def2-tzvp(-f) cpcm(dmso) E: -1056.432033968151, G: -1056.05528198
 C          2.09492493   -1.74655998   -0.08130500
 C          1.56163299   -1.61817300    1.34372497
 O          0.60680097   -2.63248610    1.57952797
 C          1.00170600   -0.22291300    1.57386398
 O          0.56288201   -0.08281700    2.87472796
 C          1.94965196    0.87943900    1.12766898
 C          2.47289610    0.59910101   -0.28133401
 C          3.58095002    1.55185401   -0.68430400
 O          3.99070692    1.33912396   -2.02986693
 O          3.03400993   -0.71679401   -0.32686999
 O          1.22943497    2.10274196    1.20458603
 O          1.01810205   -1.70695400   -0.96620899
 H          1.65425301    0.67778200   -1.00196898
 H          2.65453005   -2.68092704   -0.19225501
 H         -0.00028400   -0.12067700    0.86641699
 H          2.79492688    0.88672602    1.82802200
 C          1.37796402   -2.02004790   -2.31246090
 H          0.50954199   -2.74053788    2.53293705
 H          3.21757197    2.57893205   -0.62459803
 H          4.42666817    1.43717206    0.00489700
 H          1.83009899    2.80900407    1.46832597
 H          0.47391301    0.86252701    3.07083201
 H          4.30471420    0.42894799   -2.09742594
 H          2.03988004   -1.25698698   -2.73065710
 H          0.45123300   -2.05129600   -2.88438296
 H          1.87138605   -2.99652910   -2.35638595
 H          2.42241192   -1.73295999    2.01409101
 C         -3.50911093    1.09244299    0.88931102
 C         -2.02946901    0.94589400    1.33666098
 C         -3.63034701    0.61638498   -0.56215101
 C         -3.34348392   -0.88777101   -0.61085802
 C         -1.99650300   -1.16013598    0.10917700
 N         -1.33716905    0.14227200    0.31659999
 H         -3.80791593    2.13792610    0.98208702
 H         -1.52001405    1.90669203    1.39899302
 H         -4.63104677    0.82412398   -0.94442701
 H         -4.13523912   -1.45029700   -0.11301900
 H         -1.32791603   -1.78397405   -0.47764701
 H         -4.15556717    0.49631101    1.53659797
 H         -1.94342005    0.42843601    2.29136205
 C         -2.57881308    1.34227705   -1.40698695
 H         -3.28777099   -1.22649598   -1.64767301
 H         -2.13866591   -1.61036301    1.09036696
 C         -1.16914797    0.88540900   -0.94486201
 H         -2.67844391    2.42303109   -1.28619802
 H         -2.70265293    1.10674095   -2.46531606
 H         -0.51192200    1.73147500   -0.75195301
 H         -0.69788700    0.21293201   -1.65966296
