48
wb97x-d4 ma-def2-tzvp(-f) cpcm(dmso) E: -1056.43172895961, G: -1056.0552482100002
 C          2.18855596   -1.73745203   -0.00735600
 C          1.66249597   -1.57350302    1.41303396
 O          0.75998998   -2.59331799    1.79380095
 C          1.05225503   -0.18790200    1.58936405
 O          0.60417998    0.05152200    2.87126207
 C          1.97279096    0.92766201    1.11602402
 C          2.52143693    0.61356503   -0.27856299
 C          3.62230492    1.58583403   -0.66604400
 O          4.05013895    1.41635799   -2.01333189
 O          3.08909512   -0.69791299   -0.30895299
 O          1.29006505    2.16847610    1.04899204
 O          1.07308102   -1.76545703   -0.85138100
 H          1.70852900    0.67962003   -1.00949705
 H          2.76775408   -2.66162896   -0.10281800
 H          0.05251300   -0.11033000    0.86679000
 H          2.81075001    0.98330498    1.82434797
 C          1.37675500   -2.14075804   -2.19666004
 H          0.20123500   -2.80011106    1.03247404
 H          3.27128911    2.60619903   -0.49133301
 H          4.49551296    1.40311694   -0.03512900
 H          1.17305803    2.50324512    1.94592202
 H          0.22182199   -0.76755399    3.22292805
 H          3.35713792    1.75285399   -2.59359598
 H          0.42498901   -2.22792506   -2.71918011
 H          1.89775205   -3.10315204   -2.21312094
 H          1.99394298   -1.37986100   -2.68104100
 H          2.51685905   -1.63679302    2.09413600
 C         -3.40342402    1.25895596    0.85238701
 C         -1.93085301    1.05153203    1.30109406
 C         -3.58697200    0.64170498   -0.53697699
 C         -3.36968493   -0.86962700   -0.43154600
 C         -1.97739005   -1.12904799    0.20279400
 N         -1.28394496    0.16632199    0.31886101
 H         -3.62596512    2.32715392    0.83349597
 H         -1.37020302    1.98413002    1.31744397
 H         -4.59052610    0.85101002   -0.91127902
 H         -4.14153290   -1.32583296    0.19056700
 H         -1.36501503   -1.77865601   -0.41904801
 H         -4.08008718    0.78403801    1.56550598
 H         -1.86561501    0.57731903    2.27892494
 C         -2.53892493    1.22837603   -1.48783600
 H         -3.41618800   -1.32879102   -1.42101800
 H         -2.05691195   -1.54852605    1.20546699
 C         -1.12355602    0.82593697   -0.98874700
 H         -2.62429595    2.31640792   -1.51803398
 H         -2.68688703    0.84898400   -2.50034499
 H         -0.48141900    1.69281006   -0.84571397
 H         -0.63689297    0.11770300   -1.65706599
