48
wb97x-d4 ma-def2-tzvp(-f) cpcm(dmso) E: -1056.431297688807, G: -1056.0551655400002
 C          2.06716800   -1.73886597   -0.26103601
 C          1.47813106   -1.82544303    1.15181696
 O          0.47181901   -2.80999088    1.26501703
 C          0.91486502   -0.47941801    1.56224597
 O          0.40521899   -0.51403302    2.84265494
 C          1.90403795    0.65472102    1.34042895
 C          2.48781800    0.60079098   -0.07118200
 C          3.62889600    1.58288705   -0.25169599
 O          4.09734297    1.60797501   -1.59411204
 O          3.02978206   -0.70159101   -0.31251100
 O          1.20370102    1.86505497    1.59379995
 O          1.02437901   -1.54552197   -1.16549504
 H          1.70673001    0.82200497   -0.80413902
 H          2.62105799   -2.65422297   -0.49758601
 H         -0.04237800   -0.24090500    0.82481003
 H          2.71608496    0.52150702    2.06697202
 C          1.43192101   -1.64772797   -2.53027201
 H          0.89824402   -3.67129707    1.34528601
 H          3.27898693    2.59070992   -0.02230600
 H          4.44011402    1.32621205    0.44057301
 H          1.80844295    2.50840592    1.98064995
 H          0.33429199    0.39838001    3.16380191
 H          4.41462183    0.72228199   -1.80908597
 H          1.94179404   -2.60101295   -2.70479298
 H          2.09570003   -0.82359302   -2.80552292
 H          0.52485001   -1.60199797   -3.13214707
 H          2.31113696   -2.04156590    1.83253205
 C         -3.38223600    1.38176894    0.81166798
 C         -2.03630996    0.84481400    1.36851394
 C         -3.61966395    0.76723403   -0.57087100
 C         -3.50497198   -0.75672299   -0.46158400
 C         -2.04675388   -1.12070203   -0.07268700
 N         -1.35538399    0.13184699    0.27617800
 H         -3.34528494    2.47064400    0.73924398
 H         -1.38384104    1.64922094    1.70446897
 H         -4.60805416    1.04490697   -0.94090497
 H         -4.19754887   -1.13362300    0.29384100
 H         -1.49842799   -1.57587695   -0.89421397
 H         -4.18778896    1.11440396    1.49739099
 H         -2.18507290    0.13544901    2.18162799
 C         -2.53667092    1.27273405   -1.52890098
 H         -3.75144506   -1.23047197   -1.41337800
 H         -2.00187993   -1.78011799    0.79218900
 C         -1.14518595    0.99510700   -0.89900202
 H         -2.64396906    2.34467196   -1.70329905
 H         -2.61758304    0.76259202   -2.49083996
 H         -0.66208702    1.90742803   -0.55206800
 H         -0.48457599    0.47095001   -1.58607602
