48
wb97x-d4 ma-def2-tzvp(-f) cpcm(dmso) E: -1056.431269956683, G: -1056.05504535
 C          2.33860707   -0.60657400    1.28151596
 C          1.95456898    0.84781498    1.54919600
 O          1.16550899    1.03706503    2.70880795
 C          1.18888605    1.41183603    0.36643401
 O          0.84068102    2.73772812    0.52451903
 C          1.90086102    1.18898404   -0.95928001
 C          2.36226892   -0.26567900   -1.08383095
 C          3.29027009   -0.44838899   -2.27247095
 O          3.59197211   -1.81814504   -2.51890707
 O          3.08678508   -0.66226602    0.08230200
 O          1.04876101    1.47460902   -2.05653596
 O          1.17698896   -1.37627399    1.22959399
 H          1.48487902   -0.90834802   -1.21437395
 H          3.01528311   -0.97791201    2.05899405
 H          0.12877600    0.79354298    0.28230900
 H          2.78142905    1.84560001   -0.97135103
 C          1.43033898   -2.77910209    1.14107394
 H          1.74970698    1.12868202    3.47053790
 H          2.83813500    0.01739200   -3.15196490
 H          4.24041224    0.04860900   -2.06266189
 H          0.98755002    2.43184710   -2.15669107
 H          0.62047398    2.88141203    1.45850003
 H          2.80359602   -2.23889494   -2.88176203
 H          2.08017111   -3.10137701    1.96140897
 H          1.89587104   -3.03507209    0.18548200
 H          0.46427700   -3.27676392    1.22069204
 H          2.89058995    1.41417098    1.62600899
 C         -2.83599591   -1.17935801   -0.87441099
 C         -1.36128497   -0.69685602   -0.83340299
 C         -3.70200706   -0.17265999   -0.11034400
 C         -3.43436790    1.22830999   -0.66988200
 C         -1.96614206    1.61777103   -0.34945500
 N         -1.28330302    0.40825900    0.13657799
 H         -2.91739988   -2.16838098   -0.41893500
 H         -0.68577403   -1.48206198   -0.50158602
 H         -4.75791407   -0.42626199   -0.21854800
 H         -3.59522796    1.24057996   -1.74986196
 H         -1.90620601    2.36730099    0.43821701
 H         -3.15910697   -1.25733101   -1.91392696
 H         -1.02650797   -0.31062299   -1.79478705
 C         -3.29934406   -0.19975001    1.36794400
 H         -4.10610819    1.96045303   -0.21866199
 H         -1.43415403    1.97565699   -1.22865605
 C         -1.76435196    0.00769600    1.46939600
 H         -3.56226897   -1.15693402    1.82148004
 H         -3.82048106    0.58897102    1.91456902
 H         -1.23946202   -0.90436798    1.74361897
 H         -1.50023198    0.79508799    2.17310596
