48
wb97x-d4 ma-def2-tzvp(-f) cpcm(dmso) E: -1056.432377983269, G: -1056.0550291900001
 C          2.19859910   -1.68181503   -0.08334800
 C          1.63552499   -1.62674904    1.33638704
 O          0.74972099   -2.69891906    1.58132994
 C          1.01071799   -0.26144099    1.60051501
 O          0.54157501   -0.17012399    2.89209008
 C          1.93103695    0.88498098    1.20497298
 C          2.44778800    0.68845803   -0.21987100
 C          3.51184702    1.70084405   -0.59659302
 O          3.91593909    1.54928398   -1.95184505
 O          3.06546402   -0.59853500   -0.32666799
 O          1.18382001    2.08453894    1.34938395
 O          1.09666502   -1.70389104   -0.94618201
 H          1.61920094    0.76329798   -0.92944199
 H          2.80995202   -2.58002305   -0.21639501
 H          0.01669600   -0.15261200    0.87539101
 H          2.78198910    0.87550199    1.89858794
 C          1.43091905   -2.01184511   -2.30157590
 H          0.25247601   -2.85947704    0.76782799
 H          3.10665989    2.70910001   -0.49923301
 H          4.36765385    1.59703803    0.08174000
 H          1.76874804    2.79240108    1.64307594
 H          0.43605000    0.76836699    3.11331296
 H          4.27535295    0.65886801   -2.05015492
 H          0.49072400   -2.08197403   -2.84703207
 H          1.96134198   -2.96779108   -2.35263991
 H          2.04994297   -1.22290301   -2.73621297
 H          2.47117591   -1.73199201    2.03528404
 C         -3.37139106    1.37866604    0.75145400
 C         -2.00006008    0.94856203    1.33826804
 C         -3.63508296    0.56571299   -0.51907700
 C         -3.47827601   -0.92171597   -0.19068401
 C         -1.99511695   -1.19442701    0.17653900
 N         -1.32700300    0.11014500    0.33126700
 H         -3.35875511    2.44594789    0.52112299
 H         -1.35957694    1.80323005    1.54889703
 H         -4.64121008    0.76519799   -0.89148700
 H         -4.12605286   -1.19370306    0.64507103
 H         -1.47273600   -1.73763299   -0.60906899
 H         -4.15102577    1.20016003    1.49370599
 H         -2.11324501    0.34860599    2.24039412
 C         -2.59545803    0.95002699   -1.57618594
 H         -3.75312591   -1.53852499   -1.04790199
 H         -1.90279698   -1.73322594    1.11872995
 C         -1.17915595    0.80881298   -0.95782298
 H         -2.74129391    1.98035097   -1.90502703
 H         -2.68700290    0.29936701   -2.44825101
 H         -0.72020602    1.77548206   -0.75474399
 H         -0.51900202    0.21637200   -1.58790696
