48
wb97x-d4 ma-def2-tzvp(-f) cpcm(dmso) E: -1056.432237469973, G: -1056.05486745
 C          2.18261909   -1.72540998    0.00893400
 C          1.61436403   -1.57904005    1.42064500
 O          0.70377201   -2.61534309    1.72312498
 C          1.01579702   -0.18975100    1.60876298
 O          0.56953198   -0.01380000    2.90009308
 C          1.94195497    0.92073703    1.13190901
 C          2.45714092    0.62362599   -0.27587801
 C          3.52364612    1.60419595   -0.72205299
 O          3.92461705    1.36426604   -2.06543303
 O          3.06804991   -0.67109501   -0.28959599
 O          1.20086396    2.13182092    1.19486105
 O          1.08726799   -1.77647805   -0.86046898
 H          1.62915802    0.64852399   -0.98963499
 H          2.77965093   -2.63965201   -0.06823100
 H          0.01250900   -0.11303300    0.89139098
 H          2.79394507    0.95459503    1.82339704
 C          1.42523301   -2.16985798   -2.19239092
 H          0.20349300   -2.81097198    0.91951901
 H          3.12186289    2.61802793   -0.69007802
 H          4.38092804    1.54299104   -0.04040600
 H          1.79180503    2.85463309    1.43496597
 H          0.47312599    0.93753302    3.06321311
 H          4.28219700    0.46880201   -2.10701489
 H          1.92046499   -3.14578390   -2.18424702
 H          2.07779789   -1.42906106   -2.66129899
 H          0.48935100   -2.23536301   -2.74567389
 H          2.44572091   -1.66363204    2.12733603
 C         -3.49908495    1.10346401    0.91860902
 C         -2.02355409    0.92822701    1.36972201
 C         -3.63134909    0.61509502   -0.52705401
 C         -3.35624409   -0.89064097   -0.56295699
 C         -1.98601902   -1.16247904    0.11441800
 N         -1.33112502    0.13884500    0.33820999
 H         -3.77511001    2.15618491    0.99863601
 H         -1.50330198    1.88126695    1.45616198
 H         -4.63386297    0.82394803   -0.90402597
 H         -4.13510990   -1.43870699   -0.03027400
 H         -1.33442903   -1.76064801   -0.51868802
 H         -4.15885782    0.52921098    1.57199895
 H         -1.94876301    0.38911000    2.31328297
 C         -2.58435702    1.32843804   -1.38754404
 H         -3.33658600   -1.24631298   -1.59507298
 H         -2.09770012   -1.64403999    1.08541405
 C         -1.17001605    0.89391702   -0.91715097
 H         -2.69146895    2.41069698   -1.29044998
 H         -2.70854592    1.06860006   -2.44010401
 H         -0.52869898    1.74968505   -0.71469200
 H         -0.68269199    0.23466000   -1.63418698
