48
wb97x-d4 ma-def2-tzvp(-f) cpcm(dmso) E: -1056.430929839195, G: -1056.05481314
 C          2.21086788   -1.50127196   -0.52755600
 C          1.64775002   -1.86101198    0.84712398
 O          0.70924699   -2.91965389    0.82765698
 C          0.97029197   -0.65362900    1.46729898
 O          0.48588800   -0.89013100    2.73740602
 C          1.83468699    0.59779400    1.44512701
 C          2.44224191    0.80283201    0.05523800
 C          3.48820400    1.89556205    0.07083800
 O          3.83739710    2.20560789   -1.27658796
 O          3.08340406   -0.39683199   -0.38464901
 O          1.07531202    1.74922001    1.77363598
 O          1.14883196   -1.24341094   -1.39285898
 H          1.65242600    1.08050895   -0.64914399
 H          2.83746409   -2.31291699   -0.91377300
 H         -0.01573500   -0.39029899    0.77480102
 H          2.64561200    0.44676200    2.17052603
 C          1.55587697   -1.06078994   -2.74970794
 H          1.18320298   -3.75581908    0.90649003
 H          3.07159805    2.77188993    0.57544303
 H          4.36330986    1.54476798    0.63028997
 H          0.89343399    1.73555100    2.72080994
 H          0.16021600   -1.80347800    2.77113509
 H          4.52204895    2.88357902   -1.25721097
 H          0.64451897   -0.98214900   -3.34171295
 H          2.14328790   -1.92005503   -3.08999109
 H          2.14668489   -0.14790700   -2.86292100
 H          2.50305891   -2.11533308    1.48497605
 C         -2.59493208    1.55506098   -1.09960496
 C         -1.17815495    1.04597700   -0.72184199
 C         -3.63383389    0.59250098   -0.51529598
 C         -3.56448293    0.66692102    1.01365197
 C         -2.09400797    0.43586800    1.45522201
 N         -1.34411895   -0.02449300    0.27686799
 H         -2.68111205    1.60286403   -2.18642092
 H         -0.65462601    0.61844999   -1.57444799
 H         -4.63358879    0.86273903   -0.85927403
 H         -3.89426589    1.64502096    1.36764503
 H         -2.01502609   -0.32721001    2.22808099
 H         -2.74846697    2.56057596   -0.70234102
 H         -0.57003897    1.83061004   -0.27612600
 C         -3.28743100   -0.83285600   -0.95767498
 H         -4.21276903   -0.09075200    1.45860898
 H         -1.62164903    1.35130405    1.80742705
 C         -1.93820095   -1.23907495   -0.30749801
 H         -3.20682597   -0.87981099   -2.04573298
 H         -4.06285477   -1.53428197   -0.64496702
 H         -1.23276699   -1.64200401   -1.02984297
 H         -2.07197690   -1.95679498    0.50088102
