48
wb97x-d4 ma-def2-tzvp(-f) cpcm(dmso) E: -1056.43193898313, G: -1056.0545830400001
 C          2.36378098   -0.57355499    1.43265796
 C          2.02142000    0.90332001    1.57486606
 O          1.33567405    1.19996500    2.77488208
 C          1.25089598    1.39521503    0.35399199
 O          0.94278198    2.73674893    0.42326900
 C          1.94986105    1.03999805   -0.94440502
 C          2.33364105   -0.44864601   -0.94794101
 C          3.25481105   -0.79977500   -2.10606503
 O          2.54067111   -0.56294799   -3.32252097
 O          3.06544709   -0.79219198    0.22846000
 O          1.08551395    1.36103201   -2.02003407
 O          1.15754199   -1.27640796    1.50085998
 H          1.42548597   -1.05484104   -1.01681495
 H          3.04523897   -0.89359200    2.22701311
 H          0.16612899    0.80330598    0.30338001
 H          2.87174606    1.63877499   -0.99261200
 C          1.31933200   -2.69190693    1.61876094
 H          0.68527901    0.50195998    2.93119097
 H          4.15459490   -0.17795600   -2.05818510
 H          3.54343009   -1.85209000   -2.02533603
 H          1.45869601    0.93598503   -2.80991912
 H          0.73769498    2.95104194    1.34725904
 H          3.16877103   -0.56879097   -4.05365515
 H          1.94660902   -2.93089795    2.48328304
 H          1.76751006   -3.10683799    0.71253699
 H          0.32324201   -3.10974598    1.75930500
 H          2.96136403    1.46276498    1.60414302
 C         -2.83179903   -0.98198098   -1.07499301
 C         -1.33082497   -0.70851099   -0.78584200
 C         -3.68261099   -0.05794700   -0.19913299
 C         -3.39501691    1.39539504   -0.58540702
 C         -1.86772895    1.65236700   -0.47208601
 N         -1.25264704    0.45262501    0.11832900
 H         -3.05696201   -2.02774906   -0.85872197
 H         -0.85041201   -1.54717100   -0.28459001
 H         -4.74200010   -0.28019500   -0.33825099
 H         -3.71752810    1.59067297   -1.60959303
 H         -1.64444005    2.49785590    0.17671500
 H         -3.04317594   -0.80094802   -2.13067102
 H         -0.78083497   -0.46091399   -1.69132102
 C         -3.28913808   -0.26854101    1.26591206
 H         -3.93637609    2.07535100    0.07519100
 H         -1.40045702    1.81323302   -1.44129801
 C         -1.80546606    0.15117100    1.44978797
 H         -3.41277909   -1.31743503    1.54255497
 H         -3.91974306    0.33174601    1.92375696
 H         -1.21044695   -0.64966899    1.88376296
 H         -1.70677304    1.05071700    2.05752707
