48
wb97x-d4 ma-def2-tzvp(-f) cpcm(dmso) E: -1056.431807466131, G: -1056.0545661400001
 C          2.18430209   -1.53743196   -0.46247199
 C          1.64561296   -1.75712705    0.95648801
 O          0.73136503   -2.83048296    1.03505003
 C          0.97865498   -0.49148199    1.45699000
 O          0.51492900   -0.63779998    2.74764109
 C          1.86315501    0.73044902    1.27467597
 C          2.40192509    0.81564200   -0.15306100
 C          3.42870688    1.91981900   -0.32830501
 O          4.51614189    1.81747699    0.58353198
 O          3.05009699   -0.41718900   -0.48345000
 O          1.08124304    1.86458302    1.62447500
 O          1.10048103   -1.38615501   -1.32672596
 H          1.57888401    1.00752795   -0.84810501
 H          2.80774307   -2.38528800   -0.76758897
 H         -0.01790800   -0.30102599    0.75988400
 H          2.70888591    0.62141198    1.96289802
 C          1.47458994   -1.34237599   -2.70399308
 H          1.23099399   -3.65539193    1.02979898
 H          3.78363991    1.90285504   -1.36429203
 H          2.95223403    2.88463998   -0.14568099
 H          1.65414500    2.53091002    2.02078199
 H          0.38719001    0.24778600    3.12212300
 H          4.99028587    1.00000405    0.38914600
 H          2.08448911   -2.21475792   -2.96143103
 H          2.03143597   -0.42947799   -2.93195391
 H          0.54964900   -1.35857296   -3.27964497
 H          2.51307893   -1.93657696    1.60408795
 C         -2.68640995    1.20966697   -1.39895904
 C         -1.25768602    0.96148801   -0.84169799
 C         -3.69929194    0.49548101   -0.49939200
 C         -3.50377893    0.97312802    0.94269001
 C         -2.08565211    0.55585200    1.41870606
 N         -1.37219906   -0.00655800    0.26185000
 H         -2.75629306    0.82923001   -2.41983008
 H         -0.59711498    0.53429198   -1.59311903
 H         -4.71525097    0.71547598   -0.83192801
 H         -3.60745406    2.05849004    0.99857199
 H         -2.12332511   -0.21438199    2.18779898
 H         -2.88329697    2.28287196   -1.42244804
 H         -0.81110799    1.86857998   -0.43697700
 C         -3.43833899   -1.01262701   -0.56471699
 H         -4.25180721    0.52661699    1.59994996
 H         -1.51184106    1.40557694    1.78532195
 C         -1.95908201   -1.28371298   -0.17644000
 H         -3.62211108   -1.38824499   -1.57278502
 H         -4.10462713   -1.54104495    0.12005900
 H         -1.36761296   -1.64261997   -1.01513600
 H         -1.87165999   -1.98952794    0.64761502
