48
wb97x-d4 ma-def2-tzvp(-f) cpcm(dmso) E: -1056.431467729987, G: -1056.0544780700002
 C          2.44429994   -0.85615098    1.08409405
 C          2.03149605    0.54155499    1.54127002
 O          1.36581504    0.53879899    2.78738904
 C          1.22089803    1.25480795    0.46261799
 O          0.89520901    2.55038500    0.79840702
 C          1.92161906    1.19790602   -0.88660198
 C          2.24767804   -0.25297600   -1.22775698
 C          3.04216909   -0.39639699   -2.51307011
 O          4.26410198    0.33300599   -2.49001098
 O          3.05818200   -0.80745798   -0.18474600
 O          1.14664400    1.75036097   -1.93088603
 O          1.29214203   -1.64188695    1.09667695
 H          1.31932294   -0.82742500   -1.33047402
 H          3.20392108   -1.26990497    1.75554097
 H          0.11825100    0.66265798    0.32268700
 H          2.86576009    1.74701202   -0.77689898
 C          1.53884304   -3.03519607    0.90627098
 H          0.68987900   -0.15317100    2.76076198
 H          3.22911692   -1.46171999   -2.68662310
 H          2.45375705   -0.00536700   -3.34309793
 H          1.08221805    2.70252609   -1.79088902
 H          0.75327402    2.59979606    1.75674999
 H          4.81210995   -0.03324900   -1.78532195
 H          2.25322390   -3.39962697    1.65173495
 H          1.92596900   -3.22795105   -0.09743300
 H          0.58309603   -3.54228401    1.03313005
 H          2.94559789    1.12785602    1.67940199
 C         -3.12229395   -1.22699594    0.55575901
 C         -1.58294201   -1.04277897    0.50592297
 C         -3.78930902    0.01691500   -0.03707700
 C         -3.17062593    0.29355699   -1.40929997
 C         -1.68420899    0.68492299   -1.21152997
 N         -1.31046999    0.37101701    0.18220100
 H         -3.44567990   -1.37188196    1.58888602
 H         -1.11791694   -1.27141201    1.46082497
 H         -4.86562490   -0.13763300   -0.12868200
 H         -3.24336004   -0.59456801   -2.04082394
 H         -1.51661694    1.74973297   -1.36038995
 H         -3.39407611   -2.11885405   -0.01180500
 H         -1.11688399   -1.64989805   -0.26825699
 C         -3.50183296    1.21090603    0.87867999
 H         -3.69175506    1.11006999   -1.91228294
 H         -1.02183199    0.12929100   -1.87139499
 C         -1.97353196    1.28016996    1.13336098
 H         -4.01815796    1.10111499    1.83393097
 H         -3.84599090    2.13611889    0.41191301
 H         -1.70800698    0.95065802    2.13806295
 H         -1.58347905    2.28364396    0.96907902
