48
wb97x-d4 ma-def2-tzvp(-f) cpcm(dmso) E: -1056.431949770764, G: -1056.05442775
 C          2.17098093   -1.81633699   -0.05759100
 C          1.65036500   -1.63476503    1.36364901
 O          0.72367698   -2.63468909    1.73644400
 C          1.07002997   -0.23467000    1.53719103
 O          0.62340999    0.02292800    2.81535506
 C          2.03631306    0.83906001    1.06540406
 C          2.53731394    0.52436697   -0.34610501
 C          3.65194988    1.46684206   -0.78886300
 O          3.16521096    2.76183891   -1.11606097
 O          3.08660102   -0.79347801   -0.38243300
 O          1.43299305    2.12581897    1.03682995
 O          1.04885995   -1.83472502   -0.89189398
 H          1.71015704    0.60696000   -1.05716598
 H          2.73606896   -2.74945211   -0.14682600
 H          0.07618500   -0.13752700    0.81065798
 H          2.89427996    0.83357197    1.75087905
 C          1.32399201   -2.27406907   -2.22464800
 H          0.17122599   -2.82836795    0.96643102
 H          4.42114592    1.51898897   -0.00815900
 H          4.10658693    1.05824602   -1.69304395
 H          1.36306298    2.45624304    1.94077206
 H          0.20857801   -0.78020900    3.16677403
 H          2.63038898    3.06175494   -0.36753500
 H          1.99633300   -1.57682002   -2.73083901
 H          0.36837301   -2.30588603   -2.74632692
 H          1.77105796   -3.27271891   -2.20866799
 H          2.50074506   -1.71650696    2.04773998
 C         -3.18908000    1.61523998    0.60564101
 C         -1.85015404    1.12475097    1.21811497
 C         -3.54958606    0.70172501   -0.56980199
 C         -3.48740005   -0.75347000   -0.09555300
 C         -2.01177096   -1.10116398    0.23629600
 N         -1.25617194    0.16415501    0.27152601
 H         -3.08764791    2.64773703    0.26486799
 H         -1.14244998    1.93826199    1.36311305
 H         -4.54972219    0.93623602   -0.93779898
 H         -4.11159706   -0.88816398    0.79017502
 H         -1.55651999   -1.73364902   -0.52421701
 H         -3.96510005    1.58658504    1.37228203
 H         -1.99967504    0.60414499    2.16276097
 C         -2.51568604    0.90211600   -1.68178499
 H         -3.84788203   -1.43166995   -0.87069702
 H         -1.92015505   -1.57753801    1.21198106
 C         -1.09690404    0.74431002   -1.07363200
 H         -2.60697699    1.89678204   -2.12118506
 H         -2.66625595    0.16586301   -2.47409105
 H         -0.58832800    1.70070899   -0.95887202
 H         -0.47682399    0.07064300   -1.66109204
