48
wb97x-d4 ma-def2-tzvp(-f) cpcm(dmso) E: -1056.431226896669, G: -1056.0544208200001
 C          2.25069809   -0.75517201    1.44665599
 C          1.87512803    0.69434100    1.74598503
 O          1.06216002    0.73857099    2.90065789
 C          1.20558202    1.32327199    0.53551197
 O          0.90600997    2.64920306    0.78307998
 C          1.98031902    1.09943700   -0.75053000
 C          2.38225889   -0.37017900   -0.89888501
 C          3.37222290   -0.58063602   -2.03342009
 O          2.72773194   -0.19938999   -3.25222111
 O          3.05382991   -0.80745000    0.28135300
 O          1.15886497    1.55855405   -1.81184006
 O          1.07983100   -1.50070798    1.31843698
 H          1.49085903   -0.97860402   -1.07913995
 H          2.88128400   -1.15605295    2.24672294
 H          0.12516201    0.75670898    0.38510799
 H          2.89896202    1.70183003   -0.68422699
 C          1.31034601   -2.90680003    1.21759999
 H          1.07238495    1.64028704    3.24255109
 H          4.26165581    0.03336700   -1.85801899
 H          3.66580200   -1.63437796   -2.06230998
 H          1.58894503    1.28479302   -2.63800597
 H          0.74611098    3.09980392   -0.05943200
 H          3.39766407   -0.12465300   -3.94110703
 H          1.81565404   -3.15637994    0.28073999
 H          0.33213800   -3.38584590    1.24292004
 H          1.91398597   -3.25481606    2.06226611
 H          2.81458306    1.23595202    1.91292500
 C         -2.83351207   -0.87367398   -1.21079004
 C         -1.33974004   -0.63490200   -0.86322099
 C         -3.70107198   -0.11012800   -0.20537300
 C         -3.45210004    1.39145803   -0.37976199
 C         -1.92560101    1.65967202   -0.27811500
 N         -1.28548396    0.41361099    0.16996901
 H         -3.04622889   -1.94316399   -1.16749895
 H         -0.86646402   -1.52371597   -0.45027101
 H         -4.75576496   -0.33662200   -0.37025201
 H         -3.81111312    1.73100102   -1.35275602
 H         -1.69753397    2.43689299    0.45031101
 H         -3.03889704   -0.52780098   -2.22592902
 H         -0.77117598   -0.28501800   -1.72277796
 C         -3.28510404   -0.52102602    1.21054602
 H         -3.98134208    1.95406497    0.39182401
 H         -1.48865604    1.92555594   -1.23964798
 C         -1.82884097   -0.04499500    1.45986295
 H         -3.34650993   -1.60579801    1.31989801
 H         -3.94360209   -0.06779400    1.95362699
 H         -1.18655396   -0.84032500    1.82873797
 H         -1.78488004    0.79765099    2.14823890
