48
wb97x-d4 ma-def2-tzvp(-f) cpcm(dmso) E: -1056.431170093553, G: -1056.05431088
 C          1.98784196   -1.79785895    0.73962802
 C          1.61192000   -0.90249097    1.91793501
 O          0.65788901   -1.56244099    2.72364402
 C          1.12524998    0.44486600    1.41227305
 O          0.79746699    1.27137601    2.47010493
 C          2.08475304    1.07053602    0.41707301
 C          2.48387289    0.06556600   -0.66705000
 C          3.64557004    0.57148200   -1.50838101
 O          3.22944689    1.78120804   -2.14808893
 O          2.94949102   -1.14303303   -0.06772800
 O          1.44244003    2.22004890   -0.10893500
 O          0.82645899   -2.11514497    0.03679900
 H          1.62427294   -0.13335299   -1.31446898
 H          2.48597598   -2.70495391    1.09649003
 H          0.07756200    0.25199401    0.79862702
 H          2.99032807    1.35451305    0.97437698
 C          1.02559698   -3.10586095   -0.97302502
 H          0.64424998   -1.13269603    3.58702803
 H          4.50773621    0.75506002   -0.85887301
 H          3.91138411   -0.18825600   -2.24953294
 H          1.99957895    2.54515100   -0.83433503
 H          0.78391200    2.19007707    2.16332102
 H          4.00342321    2.20547700   -2.53502393
 H          1.63293004   -2.71382093   -1.79329300
 H          0.03788800   -3.37421298   -1.34677196
 H          1.51175106   -3.99021006   -0.54833400
 H          2.53425097   -0.72032797    2.48338795
 C         -3.55057597   -0.54379398    0.51328498
 C         -2.05979896   -0.76304001    0.88499200
 C         -3.62733889    0.50707799   -0.59970701
 C         -2.67488909    0.09750700   -1.72734296
 C         -1.21837401    0.19185300   -1.20154798
 N         -1.28832698    0.32859901    0.26389399
 H         -4.10955811   -0.20575801    1.38853800
 H         -1.89114296   -0.72427899    1.95970798
 H         -4.64846277    0.58434498   -0.97670400
 H         -2.89020896   -0.92328298   -2.05021095
 H         -0.69628000    1.06648898   -1.58663404
 H         -3.97896194   -1.49141705    0.18223099
 H         -1.66758597   -1.70019805    0.49645600
 C         -3.16680789    1.85417104   -0.03403300
 H         -2.78724194    0.75678498   -2.58978605
 H         -0.64514101   -0.70374501   -1.42938399
 C         -1.79747200    1.65050995    0.66667199
 H         -3.88622904    2.23763394    0.69133300
 H         -3.07013988    2.58811402   -0.83687401
 H         -1.89055204    1.64896703    1.75206399
 H         -1.06815505    2.40076804    0.36620200
