48
wb97x-d4 ma-def2-tzvp(-f) cpcm(dmso) E: -1056.431136124073, G: -1056.05421292
 C          1.93739700   -1.92561996    0.52820301
 C          1.53789103   -1.21339905    1.81851602
 O          0.55280900   -1.97167897    2.48859811
 C          1.08306396    0.20346300    1.51144898
 O          0.72773999    0.86121202    2.67337203
 C          2.08434200    0.95758897    0.65580601
 C          2.48851395    0.12574700   -0.56476301
 C          3.67347598    0.73285002   -1.29990304
 O          3.28389311    2.02870798   -1.76400304
 O          2.92340207   -1.16850698   -0.15003400
 O          1.48370397    2.19387698    0.30729401
 O          0.79153198   -2.12325406   -0.24067999
 H          1.63933206    0.04532200   -1.24986696
 H          2.42057610   -2.88091493    0.75715399
 H          0.05654500    0.12393400    0.83957499
 H          2.98044395    1.12281799    1.27293503
 C          1.01059997   -2.94899702   -1.38540900
 H          0.51269102   -1.67024195    3.40393710
 H          4.52397680    0.80770701   -0.61448199
 H          3.94687295    0.08550000   -2.13868189
 H          2.06288505    2.61104703   -0.35073000
 H          0.73156500    1.81616104    2.51044512
 H          4.07343817    2.49977803   -2.05337691
 H          1.65633500   -2.44888997   -2.11216807
 H          0.03309200   -3.13143706   -1.83078694
 H          1.46299195   -3.90069389   -1.08770001
 H          2.44559693   -1.13415396    2.42959595
 C         -3.56049800   -0.57332098    0.25896999
 C         -2.09041691   -0.86614299    0.66154099
 C         -3.58540201    0.66316199   -0.64561403
 C         -2.58865404    0.45486501   -1.78966498
 C         -1.15536797    0.41545001   -1.19681799
 N         -1.28551996    0.30340099    0.26635101
 H         -4.16599894   -0.40005401    1.15110600
 H         -1.97559702   -1.00549901    1.73505604
 H         -4.58936310    0.81992298   -1.04355896
 H         -2.80214500   -0.48067799   -2.31089711
 H         -0.59717900    1.32695901   -1.40541005
 H         -3.96721101   -1.44175005   -0.26215801
 H         -1.68246698   -1.73167098    0.14504801
 C         -3.14499807    1.88019395    0.17368200
 H         -2.65378499    1.26898897   -2.51354098
 H         -0.59313500   -0.44525900   -1.55172300
 C         -1.79780304    1.54574299    0.86783898
 H         -3.88856006    2.12686896    0.93329298
 H         -3.02319288    2.74893904   -0.47667000
 H         -1.92252898    1.36545098    1.93486202
 H         -1.05489194    2.32650399    0.71401399
