48
wb97x-d4 ma-def2-tzvp(-f) cpcm(dmso) E: -1056.431698833992, G: -1056.0541959000002
 C          2.03843999   -1.89792705   -0.21447900
 C          1.47726297   -1.88192904    1.20454001
 O          0.48814601   -2.88239408    1.33108401
 C          0.95709997   -0.49431601    1.54051197
 O          0.45413700   -0.46371299    2.82667994
 C          1.97883499    0.58904803    1.24944794
 C          2.55410099    0.43234000   -0.16097400
 C          3.76145411    1.33707702   -0.38377899
 O          3.42401195    2.71421504   -0.20347200
 O          3.03378797   -0.89914298   -0.34655899
 O          1.33177805    1.83550894    1.44580805
 O          0.98221201   -1.71999204   -1.10664296
 H          1.78127801    0.66751599   -0.89986902
 H          2.55576706   -2.84328103   -0.40731400
 H          0.00124000   -0.26897201    0.79985499
 H          2.79898000    0.46185100    1.97214997
 C          1.34911001   -1.92702699   -2.47136593
 H          0.34877399   -3.04866004    2.27089310
 H          4.53138018    1.10223603    0.35457200
 H          4.16816521    1.16071796   -1.38316298
 H          1.94752598    2.52190590    1.14334702
 H          0.40493801    0.45623800    3.12601995
 H          2.97621012    3.02516603   -1.00002503
 H          0.42994699   -1.87233901   -3.05384588
 H          1.80659997   -2.91389394   -2.59704304
 H          2.04484892   -1.15569305   -2.81251788
 H          2.31791711   -2.08215404    1.88056505
 C         -3.27164602    1.47775102    0.74386197
 C         -1.95011401    0.90040201    1.31689799
 C         -3.55267692    0.80744499   -0.60406202
 C         -3.49595809   -0.71260399   -0.41946900
 C         -2.04311705   -1.11458302   -0.04973900
 N         -1.30299497    0.12364700    0.24734800
 H         -3.18083811    2.55848598    0.61650097
 H         -1.26258600    1.68549502    1.62767100
 H         -4.53400183    1.10648799   -0.97613800
 H         -4.18274212   -1.02198005    0.37118399
 H         -1.52916300   -1.61066496   -0.86968601
 H         -4.08251905    1.28571606    1.44840300
 H         -2.12895393    0.22318800    2.15104198
 C         -2.46215892    1.22167695   -1.59695399
 H         -3.78577304   -1.22413504   -1.33896804
 H         -2.00138307   -1.75109994    0.83224899
 C         -1.07535303    0.93380898   -0.96224397
 H         -2.53497696    2.28531408   -1.83045101
 H         -2.56904411    0.66201901   -2.52839303
 H         -0.56630498    1.84549904   -0.65319097
 H         -0.43164900    0.36574799   -1.63028502
