48
wb97x-d4 ma-def2-tzvp(-f) cpcm(dmso) E: -1056.431249423277, G: -1056.0541603200002
 C          2.08031297   -1.82821798   -0.12199600
 C          1.56326699   -1.69236004    1.30781996
 O          0.60653400   -2.70195889    1.55683005
 C          1.01261103   -0.29335299    1.53370202
 O          0.56917602   -0.15041600    2.83454895
 C          1.97515595    0.79242802    1.08776700
 C          2.51145911    0.50698501   -0.31887400
 C          3.67098188    1.42065299   -0.68252301
 O          3.18529606    2.76596904   -0.67605603
 O          3.03712606   -0.81739497   -0.38210899
 O          1.27539003    2.02370906    1.16781402
 O          0.99442899   -1.76944900   -0.99408799
 H          1.70544100    0.63510501   -1.04774201
 H          2.62271690   -2.77184200   -0.23921300
 H          0.01824300   -0.17606699    0.82122302
 H          2.82333207    0.78269702    1.78896296
 C          1.32841897   -2.10146999   -2.34247208
 H          0.52108502   -2.80781293    2.51160908
 H          4.47484779    1.29606497    0.05036000
 H          4.04637814    1.14765799   -1.67346597
 H          1.84217894    2.69529700    0.75540102
 H          0.50484997    0.79255402    3.04626107
 H          3.94083190    3.36397409   -0.69950801
 H          0.39277601   -2.11984992   -2.90042090
 H          1.80235302   -3.08757806   -2.38484311
 H          1.99877405   -1.35485399   -2.77672505
 H          2.43003201   -1.80872202    1.96999204
 C         -3.33928108    1.40269494    0.70270902
 C         -1.97150397    0.95550400    1.28510594
 C         -3.62662005    0.57712197   -0.55480599
 C         -3.48989797   -0.90843803   -0.20770000
 C         -2.00791001   -1.20186102    0.14748800
 N         -1.32150495    0.09549900    0.28247201
 H         -3.30957103    2.46649599    0.45802999
 H         -1.31448102    1.80127001    1.48122299
 H         -4.63240290    0.78832603   -0.92183602
 H         -4.13425493   -1.15814805    0.63788903
 H         -1.49541700   -1.75983202   -0.63247901
 H         -4.11659098    1.24828506    1.45290196
 H         -2.08815098    0.36754701    2.19455409
 C         -2.58900499    0.93055701   -1.62495899
 H         -3.78492308   -1.53158402   -1.05375898
 H         -1.90560102   -1.73438001    1.09087002
 C         -1.17035604    0.77940100   -1.01370502
 H         -2.72288895    1.95764506   -1.96898997
 H         -2.69596505    0.26770201   -2.48608494
 H         -0.69784898    1.74149895   -0.82139301
 H         -0.51982701    0.17294700   -1.63978696
