48
wb97x-d4 ma-def2-tzvp(-f) cpcm(dmso) E: -1056.431958012347, G: -1056.05408452
 C          2.26230597   -1.50742996    0.80480301
 C          1.93486202   -0.43981999    1.84273005
 O          1.16016805   -0.93519700    2.91546988
 C          1.27468002    0.76030499    1.17205095
 O          0.97931302    1.78454602    2.04520512
 C          2.09531593    1.25698197   -0.00586600
 C          2.41515207    0.10144700   -0.95586801
 C          3.39411211    0.51296300   -2.05141902
 O          2.78379011    1.34108496   -3.03306794
 O          3.04182100   -0.96173602   -0.23699500
 O          1.41260505    2.25914907   -0.74730301
 O          1.03803599   -2.02156305    0.36617100
 H          1.49374700   -0.25411400   -1.42581105
 H          2.87983489   -2.29811311    1.24259198
 H          0.18940800    0.40569699    0.69440502
 H          3.03790998    1.65313900    0.39480999
 C          1.15381706   -3.21376801   -0.41505501
 H          0.51475197   -1.55860901    2.55488491
 H          4.26143694    1.00974405   -1.59901094
 H          3.74005795   -0.38809100   -2.56100512
 H          1.44594395    3.08677697   -0.25210801
 H          0.67982697    1.39898300    2.88338995
 H          2.33509803    2.05650091   -2.56051612
 H          1.72194695   -3.97188306    0.13288300
 H          1.64283299   -3.00488400   -1.36986101
 H          0.13983200   -3.57002306   -0.59248799
 H          2.87765002   -0.08414400    2.26995611
 C         -3.41262698   -0.52389598    0.89179099
 C         -1.88863003   -0.61622000    1.16568804
 C         -3.62745094    0.28645000   -0.39010099
 C         -2.75831699   -0.31181601   -1.50026095
 C         -1.26608205   -0.09140500   -1.13547695
 N         -1.21440005    0.34311399    0.27249101
 H         -3.91588902   -0.04216000    1.73259306
 H         -1.64515197   -0.34847000    2.19374108
 H         -4.67914820    0.26255900   -0.67997098
 H         -2.96237302   -1.37936795   -1.60547400
 H         -0.80763698    0.69230998   -1.73712301
 H         -3.81781101   -1.53157306    0.78586501
 H         -1.49086297   -1.60483694    0.94258398
 C         -3.17894411    1.72990596   -0.14075799
 H         -2.96688700    0.16950200   -2.45721412
 H         -0.68707198   -1.00791705   -1.22658503
 C         -1.74201906    1.70796394    0.44580901
 H         -3.84596801    2.22753596    0.56507403
 H         -3.19091606    2.29453707   -1.07536399
 H         -1.73164201    1.93070698    1.51188695
 H         -1.07642400    2.39513397   -0.07217200
