48
wb97x-d4 ma-def2-tzvp(-f) cpcm(dmso) E: -1056.431082664676, G: -1056.05397769
 C          2.27509904   -1.63300097    0.32562000
 C          1.72295296   -1.11175203    1.65177202
 O          0.84158701   -2.02226996    2.27610993
 C          1.09166396    0.26867601    1.48576605
 O          0.65468198    0.81150901    2.67325401
 C          2.02202606    1.22537005    0.75325799
 C          2.44398999    0.58496201   -0.56516200
 C          3.45109606    1.42993999   -1.32119596
 O          3.78946590    0.84504700   -2.57344389
 O          3.09470606   -0.66045302   -0.28531101
 O          1.42433500    2.47883010    0.49335700
 O          1.18033695   -1.99305105   -0.45874801
 H          1.56473100    0.41278899   -1.19610298
 H          2.92945290   -2.49393010    0.49759099
 H          0.05830500    0.16048200    0.77226800
 H          2.91552901    1.34663796    1.38189006
 C          1.52666998   -2.72782207   -1.63310099
 H          0.22715600   -2.34910488    1.60386002
 H          3.01779008    2.40695596   -1.53265595
 H          4.34481812    1.56712699   -0.70010400
 H          1.30612195    2.93935490    1.33289301
 H          0.34404799    0.09666500    3.25066304
 H          4.16918421   -0.02435200   -2.39574409
 H          2.09519100   -3.62464690   -1.36586702
 H          2.11412597   -2.11102295   -2.31794906
 H          0.59021997   -3.01432490   -2.11031103
 H          2.57002401   -0.98242903    2.33299899
 C         -3.62983799    0.37727699    1.05908096
 C         -2.16428089    0.06710900    1.46113801
 C         -3.70224810    0.50275898   -0.46557599
 C         -3.07281494   -0.74174702   -1.09634995
 C         -1.56195199   -0.77366900   -0.74672502
 N         -1.31266403    0.26269999    0.27388400
 H         -3.95784211    1.30686796    1.52872503
 H         -1.81160903    0.73752600    2.24351096
 H         -4.74034023    0.60578001   -0.78600699
 H         -3.56008291   -1.64294302   -0.71808499
 H         -0.93122202   -0.54521102   -1.60436594
 H         -4.27600288   -0.42747000    1.41393495
 H         -2.03733397   -0.96537101    1.78635705
 C         -2.89217591    1.72995603   -0.89009798
 H         -3.18949604   -0.72438699   -2.18141103
 H         -1.26293600   -1.73424900   -0.33640900
 C         -1.46726298    1.61937296   -0.28898901
 H         -3.36336303    2.64651203   -0.53065902
 H         -2.83362889    1.78447998   -1.97932506
 H         -1.30586505    2.32797289    0.52098399
 H         -0.69235700    1.76054502   -1.03921998
