48
wb97x-d4 ma-def2-tzvp(-f) cpcm(dmso) E: -1056.431501410371, G: -1056.05359268
 C          2.04840493   -1.86490405    0.59639698
 C          1.61362696   -1.14028299    1.87034094
 O          0.67893600   -1.90448105    2.60256696
 C          1.11216903    0.25759399    1.53277004
 O          0.76060998    0.94684899    2.67512298
 C          2.07729602    1.01342499    0.63501900
 C          2.47028995    0.16902000   -0.57946402
 C          3.60603094    0.80059499   -1.36988902
 O          3.14166808    2.05790091   -1.86996198
 O          2.96690011   -1.09701097   -0.14774001
 O          1.44089901    2.22841907    0.27789399
 O          0.87564099   -2.15206599   -0.11155700
 H          1.60422099    0.03768300   -1.23424101
 H          2.58224106   -2.78694201    0.84700400
 H          0.07670600    0.14816900    0.87401700
 H          2.98501801    1.20969296    1.22575700
 C          1.06395698   -3.05939507   -1.19989800
 H          0.09086700   -2.33470607    1.96700394
 H          4.47082710    0.94074702   -0.71309698
 H          3.88566995    0.13442899   -2.19162393
 H          1.98251104    2.63758707   -0.41662499
 H          0.74759197    1.89518297    2.47576904
 H          3.89780807    2.55076790   -2.20818710
 H          0.07370100   -3.28587890   -1.59304404
 H          1.54213798   -3.97903395   -0.84809101
 H          1.67474103   -2.60287404   -1.98275805
 H          2.49548793   -1.01636899    2.50624394
 C         -3.54601002   -0.57786798    0.31308901
 C         -2.07509208   -0.84468597    0.73231602
 C         -3.57962894    0.64450002   -0.60963500
 C         -2.58654499    0.42538199   -1.75457597
 C         -1.15072894    0.38286799   -1.16666305
 N         -1.27326500    0.31347600    0.30006099
 H         -4.15909100   -0.39859000    1.19852197
 H         -1.97176504   -0.94008303    1.81281495
 H         -4.58588886    0.78839600   -1.00661302
 H         -2.80531502   -0.51269698   -2.26884103
 H         -0.58139700    1.28029704   -1.40364802
 H         -3.93760490   -1.45908201   -0.19779800
 H         -1.66392803   -1.72819304    0.24733900
 C         -3.14613700    1.87621295    0.19038101
 H         -2.65135694    1.23499203   -2.48341990
 H         -0.60197300   -0.49568301   -1.50016296
 C         -1.78406203    1.57152498    0.87008101
 H         -3.88378596    2.12004209    0.95661801
 H         -3.04545593    2.73924804   -0.47091600
 H         -1.88808703    1.42553306    1.94448602
 H         -1.04883397    2.35029197    0.67683399
