48
wb97x-d4 ma-def2-tzvp(-f) cpcm(dmso) E: -1056.431113821772, G: -1056.0534951900001
 C          2.04057908   -1.86444402   -0.00962800
 C          1.51387501   -1.65997803    1.41625500
 O          0.48796099   -2.57057595    1.75399005
 C          1.00168002   -0.24312800    1.58288705
 O          0.57014501   -0.01349000    2.87435102
 C          1.99625099    0.79356301    1.08894598
 C          2.54649806    0.44208100   -0.29549801
 C          3.74431491    1.31247795   -0.66173702
 O          3.41122890    2.70221806   -0.64386499
 O          3.03478503   -0.89795798   -0.29816100
 O          1.32869399    2.04528093    1.11286795
 O          0.96652800   -1.80092204   -0.89542103
 H          1.75827205    0.56322497   -1.04551101
 H          2.55164909   -2.83034611   -0.08817100
 H          0.00686800   -0.12778801    0.86683398
 H          2.83575702    0.79194999    1.80065405
 C          1.30282998   -2.19089007   -2.22700191
 H          0.89432400   -3.41560793    1.97928500
 H          4.53285694    1.16882503    0.08040100
 H          4.12636423    1.01294601   -1.64133596
 H          1.93775594    2.69224811    0.72297102
 H          0.53900999    0.94347298    3.02400994
 H          2.94346905    2.91363907   -1.46113300
 H          2.00005293   -1.48143804   -2.68089008
 H          0.37270501   -2.20140791   -2.79435611
 H          1.74698496   -3.19180703   -2.22924399
 H          2.37078905   -1.77266705    2.09179997
 C         -3.44784999    1.22712195    0.82255697
 C         -1.97487295    1.04203105    1.27804601
 C         -3.59527493    0.66711003   -0.59608197
 C         -3.37143493   -0.84732902   -0.54982698
 C         -2.02570701   -1.12956202    0.16915099
 N         -1.31859100    0.15708800    0.30261701
 H         -3.69981909    2.28861094    0.84979999
 H         -1.42498004    1.98215306    1.28876698
 H         -4.58894110    0.89093101   -0.98776197
 H         -4.17878389   -1.34073496   -0.00583100
 H         -1.38621104   -1.80530202   -0.39229101
 H         -4.11855698    0.70167500    1.50544298
 H         -1.90907800    0.57300198    2.25902200
 C         -2.52108312    1.29556799   -1.48934197
 H         -3.34661794   -1.25557804   -1.56250596
 H         -2.17152810   -1.52419698    1.17337406
 C         -1.12614000    0.82390100   -0.99723798
 H         -2.58335996    2.38489795   -1.44440806
 H         -2.65710711    0.99132699   -2.52854395
 H         -0.44317201    1.65791500   -0.84633899
 H         -0.67311502    0.09989400   -1.67191005
