48
wb97x-d4 ma-def2-tzvp(-f) cpcm(dmso) E: -1056.431451143208, G: -1056.05258484
 C          2.23593712   -1.65869606   -0.49998200
 C          1.63531697   -1.97547305    0.86933303
 O          0.76177597   -3.08338189    0.81039399
 C          0.98060900   -0.72912401    1.44969404
 O          0.47985199   -0.97278601    2.71127796
 C          1.89159703    0.48454699    1.38581002
 C          2.48431611    0.66066402   -0.01366100
 C          3.58859205    1.70635295   -0.03696900
 O          3.01593995    2.95945406    0.34707901
 O          3.10790205   -0.55321300   -0.43172401
 O          1.12298501    1.59989202    1.80540299
 O          1.15673399   -1.44716704   -1.36520505
 H          1.69582701    0.94683897   -0.71630901
 H          2.85383701   -2.49206495   -0.84893799
 H          0.00170600   -0.45016900    0.74572998
 H          2.71948910    0.29960799    2.08717704
 C          1.52699304   -1.36646795   -2.74365902
 H          0.28186601   -3.03815103   -0.02722000
 H          4.37858582    1.41233695    0.66180700
 H          4.00722408    1.76365602   -1.04621100
 H          1.65988302    2.39075494    1.63420606
 H          0.36199999   -0.12655801    3.16894388
 H          3.73110795    3.57605600    0.53992498
 H          2.12087107   -0.46873900   -2.93306303
 H          0.60002601   -1.31940198   -3.31369495
 H          2.09754801   -2.25361300   -3.03584003
 H          2.45436096   -2.24771905    1.54226995
 C         -2.56054807    1.48901200   -1.18944097
 C         -1.14948905    1.02323997   -0.73496801
 C         -3.61880493    0.63554102   -0.48350200
 C         -3.47779012    0.82210797    1.02927697
 C         -2.04355907    0.40494999    1.45451105
 N         -1.32877100   -0.05496200    0.25323299
 H         -2.64848995    1.38372099   -2.27215791
 H         -0.56630802    0.61816001   -1.56032002
 H         -4.61691904    0.93761402   -0.80543298
 H         -3.64940405    1.86488605    1.30177796
 H         -2.05406404   -0.41770601    2.16820097
 H         -2.69722795    2.54264593   -0.93914402
 H         -0.58968502    1.82245302   -0.25270399
 C         -3.38012099   -0.83707100   -0.82769901
 H         -4.21048784    0.20905399    1.55710995
 H         -1.48068702    1.23791695    1.87233496
 C         -1.96319497   -1.24479604   -0.33890599
 H         -3.45321393   -0.99040103   -1.90594101
 H         -4.12861776   -1.46747005   -0.34445801
 H         -1.33259106   -1.58131695   -1.15918696
 H         -2.00290704   -2.01501894    0.43084300
