48
wb97x-d4 ma-def2-tzvp(-f) cpcm(dmso) E: -1056.429806393429, G: -1056.0513348900001
 C          2.12479305   -1.88344395    0.45805001
 C          1.53777206   -1.28932798    1.74354196
 O          0.53913802   -2.12915492    2.28284788
 C          1.05612695    0.14013900    1.51685905
 O          0.62858897    0.70822603    2.69825912
 C          2.09047699    0.97467202    0.78169602
 C          2.51784301    0.26575401   -0.50245100
 C          3.64631605    0.98917001   -1.22104299
 O          3.15097499    2.26445198   -1.64011502
 O          3.04946709   -1.01252794   -0.15356900
 O          1.54040694    2.26173306    0.57812899
 O          1.04308701   -2.18671703   -0.37175801
 H          1.66093898    0.15865500   -1.17686296
 H          2.69715405   -2.78737211    0.69073999
 H          0.03950000    0.09037800    0.79330599
 H          2.97409010    1.03509700    1.43602300
 C          1.38952303   -2.98268008   -1.50601900
 H          0.02761400   -2.47972798    1.54006100
 H          4.49431896    1.10855997   -0.53861099
 H          3.96256208    0.39285001   -2.08208704
 H          2.07706189    2.69857001   -0.10369000
 H          0.61020601    1.67133498    2.58762002
 H          3.89546800    2.79807997   -1.94048703
 H          0.45675701   -3.23228693   -2.01018810
 H          1.89447498   -3.89987493   -1.18593001
 H          2.03748202   -2.42527890   -2.18699193
 H          2.34248590   -1.23164499    2.48311710
 C         -3.66973591    0.23684600    0.95806199
 C         -2.20860600   -0.06162400    1.39102805
 C         -3.67302704    0.64953798   -0.51597798
 C         -3.00544596   -0.45006099   -1.34596598
 C         -1.52895296   -0.60606402   -0.88814199
 N         -1.31904697    0.28429100    0.26813000
 H         -4.08550215    1.03588903    1.57480800
 H         -1.90503204    0.53163803    2.25233698
 H         -4.69771910    0.80620998   -0.85773599
 H         -3.53349304   -1.39679503   -1.21579301
 H         -0.82252997   -0.31093001   -1.66243005
 H         -4.27884293   -0.65655297    1.10652995
 H         -2.05992699   -1.11627197    1.61498499
 C         -2.86557698    1.94016802   -0.66653001
 H         -3.03118992   -0.19260401   -2.40633392
 H         -1.30400503   -1.62110901   -0.57264400
 C         -1.43661404    1.70589304   -0.10786000
 H         -3.34157610    2.75434303   -0.11727800
 H         -2.80767107    2.22984695   -1.71758902
 H         -1.24355698    2.30112290    0.78326201
 H         -0.66658199    1.91859698   -0.84531099
