48
wb97x-d4 ma-def2-tzvp(-f) cpcm(dmso) E: -1056.426119871672, G: -1056.0496832000001
 C          2.39778996   -1.94631100    0.23654300
 C          0.92214602   -1.55589604   -0.02026100
 O          0.61113399   -1.47038102   -1.40287197
 C          0.69418198   -0.17036501    0.54768902
 O          0.76775599   -0.22129300    1.92520797
 C          1.58091700    0.88193297   -0.13249999
 C          2.94326901    0.25407100   -0.50096399
 C          4.08491802    1.24760699   -0.39026600
 O          4.24501419    1.74023604    0.93558902
 O          3.24335003   -0.82662600    0.37996101
 O          0.96101302    1.44216800   -1.27680099
 O          2.78112698   -2.76878691   -0.82748699
 H          2.89554811   -0.10575000   -1.53435004
 H          2.48003197   -2.48495102    1.18485200
 H         -0.42459401    0.13686000    0.24005800
 H          1.73241997    1.70699596    0.56709403
 C          4.03915882   -3.41743112   -0.62858498
 H          1.12206304   -2.15681601   -1.85430300
 H          5.00690508    0.77172202   -0.74139398
 H          3.87182689    2.10807204   -1.02771103
 H          0.82373899    0.72132999   -1.90809298
 H          0.88613802    0.66843802    2.28545403
 H          4.46707106    0.98999202    1.50044000
 H          4.17652988   -4.09797716   -1.46767497
 H          4.03016186   -3.98354292    0.30870399
 H          4.85198784   -2.68799591   -0.60935098
 H          0.27913299   -2.28890991    0.47675201
 C         -3.42867708    2.29776812    0.71100801
 C         -1.92961299    1.93511999    0.52584898
 C         -4.27818298    1.13465202    0.18719600
 C         -4.04501200   -0.08874300    1.08009100
 C         -2.51550508   -0.34370100    1.17387795
 N         -1.87006605    0.51056600    0.16803899
 H         -3.64492512    3.21416712    0.15946899
 H         -1.46420705    2.49536300   -0.28305900
 H         -5.33450985    1.40829802    0.19431300
 H         -4.44271088    0.08114700    2.08184004
 H         -2.25763607   -1.37990105    0.95520198
 H         -3.64293599    2.47691488    1.76642096
 H         -1.35675597    2.07884693    1.44269204
 C         -3.82974005    0.79806900   -1.23943102
 H         -4.54296207   -0.96447802    0.65925801
 H         -2.11255908   -0.06873300    2.14798808
 C         -2.37400508    0.25450200   -1.18916094
 H         -3.87198997    1.68957698   -1.86843503
 H         -4.47936010    0.04008200   -1.68017805
 H         -1.72264695    0.76370698   -1.89689100
 H         -2.32673693   -0.81961602   -1.36182296
