48
wb97x-d4 ma-def2-tzvp(-f) cpcm(dmso) E: -1056.426052782732, G: -1056.0495578
 C          2.54956198   -1.49971795    0.84525698
 C          1.02941096   -1.29895401    0.63973600
 O          0.53715199   -1.99224496   -0.49730301
 C          0.77830303    0.17170499    0.37638399
 O          1.05168998    0.89997101    1.51692200
 C          1.47907102    0.64735001   -0.90283102
 C          2.82956910   -0.08878400   -1.05663002
 C          3.89588404    0.79300398   -1.68034196
 O          4.19134808    1.93060195   -0.87686199
 O          3.32158303   -0.49975899    0.21797000
 O          0.67448997    0.46171799   -2.05439901
 O          2.84586191   -2.77910089    0.36430901
 H          2.67825508   -0.96165800   -1.70051301
 H          2.79583907   -1.42318296    1.90790606
 H         -0.39562500    0.27240399    0.14274900
 H          1.65240002    1.72257900   -0.82078397
 C          4.14761686   -3.24436402    0.72642601
 H          1.03154099   -2.82146096   -0.56338000
 H          4.79786921    0.19631501   -1.85385394
 H          3.53336906    1.16448796   -2.64095998
 H          0.49926400   -0.48776799   -2.12691092
 H          1.13382804    1.83872104    1.29818594
 H          4.53590822    1.60911095   -0.03467100
 H          4.23341417   -4.26135111    0.34623501
 H          4.25988197   -3.24641991    1.81552398
 H          4.92173290   -2.61769605    0.27765501
 H          0.51095301   -1.62506497    1.54673696
 C         -4.05273914   -0.11783600   -0.65248299
 C         -2.55531096   -0.52611601   -0.56966698
 C         -4.29056120    1.06948698    0.28798699
 C         -3.51431394    2.28330803   -0.23580600
 C         -2.03962803    1.85831499   -0.47339299
 N         -1.86188900    0.54464602    0.16171600
 H         -4.67204189   -0.96901101   -0.36491299
 H         -2.41014290   -1.45228302   -0.01543300
 H         -5.35603523    1.29855800    0.34195900
 H         -3.93838906    2.64040303   -1.17571199
 H         -1.33322001    2.55385995   -0.01902400
 H         -4.30657911    0.15662000   -1.67835903
 H         -2.09867001   -0.61899698   -1.55372298
 C         -3.75728893    0.70892602    1.67876506
 H         -3.55719590    3.09880209    0.48899001
 H         -1.80550802    1.74596000   -1.53038895
 C         -2.21348596    0.56396598    1.58867598
 H         -4.20005989   -0.22803600    2.02250910
 H         -4.00212193    1.48748899    2.40297198
 H         -1.86017704   -0.36452699    2.03759408
 H         -1.69481504    1.40602505    2.04517794
