48
wb97x-d4 ma-def2-tzvp(-f) cpcm(dmso) E: -1056.426069740266, G: -1056.0494482400002
 C          2.48558497   -1.68386197    0.68455797
 C          0.97798902   -1.41852701    0.45992500
 O          0.52032298   -1.88278794   -0.80147201
 C          0.75828499    0.07982200    0.46024901
 O          0.97976899    0.57448202    1.73074996
 C          1.52528703    0.77036101   -0.67657101
 C          2.86551690    0.03991300   -0.91478097
 C          3.96866202    0.98856199   -1.34499800
 O          4.23255301    1.99471402   -0.37312901
 O          3.29689407   -0.60089499    0.28477299
 O          0.76546001    0.82612902   -1.87161195
 O          2.78788900   -2.85903096   -0.01025800
 H          2.72369695   -0.70410001   -1.70622003
 H          2.68647194   -1.80831504    1.75222600
 H         -0.39313999    0.24803300    0.18731301
 H          1.71481001    1.80609906   -0.38576001
 C          4.07125378   -3.40004206    0.31064799
 H          1.00734603   -2.69447303   -1.00257802
 H          4.87357378    0.41050500   -1.56061494
 H          3.65735507    1.50098705   -2.25755000
 H          0.58573502   -0.08780100   -2.13558102
 H          1.09800994    1.53365898    1.69791102
 H          4.57574320    1.55856001    0.41601199
 H          4.86687994   -2.71407509    0.01121000
 H          4.16532707   -4.33379412   -0.24187100
 H          4.14000893   -3.59757900    1.38536501
 H          0.41932800   -1.89260304    1.27274501
 C         -3.84794593    0.36925399    1.55289805
 C         -2.37877893   -0.10394000    1.37702799
 C         -4.28249693    1.08282804    0.26725200
 C         -3.98832297    0.17050900   -0.92956501
 C         -2.44847488    0.00596700   -1.06060898
 N         -1.85820699    0.55018800    0.17009400
 H         -3.92319989    1.04703295    2.40544009
 H         -1.74906397    0.18414600    2.21897197
 H         -5.34749794    1.31663597    0.30887100
 H         -4.45666409   -0.80507100   -0.78399903
 H         -2.04272294    0.57117200   -1.89783204
 H         -4.48080111   -0.49752000    1.74986696
 H         -2.30802608   -1.18047500    1.22272205
 C         -3.46530104    2.37149501    0.12072700
 H         -4.38091803    0.60218799   -1.85163796
 H         -2.14914393   -1.03729498   -1.14899504
 C         -1.95732999    2.01382494    0.23869900
 H         -3.72654200    3.08725309    0.90169102
 H         -3.66192389    2.83611894   -0.84751999
 H         -1.53443205    2.32982612    1.19235802
 H         -1.36882496    2.43191695   -0.57715201
