48
wb97x-d4 ma-def2-tzvp(-f) cpcm(dmso) E: -1056.433090155228, G: -1056.05607164
 C          2.29500103   -1.46113503   -0.48784301
 C          1.72454000   -1.83309102    0.87518698
 O          0.90340102   -2.98339009    0.83490503
 C          0.99566102   -0.64009601    1.48386300
 O          0.49121699   -0.88982397    2.74218011
 C          1.84290004    0.62411797    1.47922397
 C          2.43011308    0.85909599    0.08812000
 C          3.46802092    1.96553695    0.09212600
 O          3.94396091    2.23920703   -1.22034395
 O          3.10705805   -0.31502199   -0.37260100
 O          1.08224595    1.76673901    1.83179796
 O          1.20367002   -1.28067994   -1.34371901
 H          1.63137496    1.12290597   -0.61083001
 H          2.95543289   -2.24938703   -0.86316198
 H          0.01545100   -0.38361999    0.77493697
 H          2.66396689    0.46884999    2.19210911
 C          1.56925201   -1.13183796   -2.71808004
 H          0.38079900   -2.95002604    0.02200600
 H          3.01569510    2.88380408    0.46610999
 H          4.29385805    1.68189704    0.75589502
 H          0.93809801    1.75651205    2.78544688
 H          0.16043501   -1.80113995    2.76760197
 H          4.33921099    1.42752600   -1.56135201
 H          2.18762803   -1.97594905   -3.03931189
 H          2.11343503   -0.19689099   -2.87354898
 H          0.64159799   -1.11528599   -3.28870106
 H          2.56393409   -2.06662893    1.53780401
 C         -2.57233000    1.36090899   -1.29906499
 C         -1.16858304    1.05994797   -0.70787001
 C         -3.62392902    0.61327398   -0.47482401
 C         -3.43615699    0.97064900    1.00242996
 C         -2.06142712    0.42723301    1.47546601
 N         -1.32325900   -0.02020900    0.28265801
 H         -2.61320710    1.03952897   -2.34187388
 H         -0.47265500    0.71813297   -1.47101498
 H         -4.62666702    0.88931602   -0.80512702
 H         -3.47252011    2.05390310    1.13503897
 H         -2.16723490   -0.43174300    2.13646102
 H         -2.75113392    2.43701911   -1.26859105
 H         -0.74758500    1.91917801   -0.18859699
 C         -3.40580702   -0.89238501   -0.65242201
 H         -4.22636890    0.52799797    1.61100900
 H         -1.46677494    1.19127703    1.97142899
 C         -1.92914605   -1.22633803   -0.30825400
 H         -3.61060596   -1.19244397   -1.68143106
 H         -4.07592010   -1.45125103    0.00374600
 H         -1.34979296   -1.48545396   -1.19261098
 H         -1.85685694   -2.03072810    0.42362201
