48
wb97x-d4 ma-def2-tzvp(-f) cpcm(dmso) E: -1056.424972318552, G: -1056.04889056
 C          2.48804498   -1.75084305   -0.54947400
 C          0.97989303   -1.48668301   -0.52054697
 O          0.48751301   -1.20290101   -1.82173300
 C          0.71489400   -0.26305100    0.34167999
 O          0.80241001   -0.62284303    1.67394996
 C          1.55780804    0.94753897   -0.06627400
 C          3.03854895    0.55705601   -0.19534600
 C          3.77560902    0.42204899    1.14142895
 O          3.79877996    1.66539204    1.83486497
 O          3.19177008   -0.60611802   -1.00874698
 O          1.06459200    1.50282705   -1.27513695
 O          2.70580101   -2.77874708   -1.45559895
 H          3.52159595    1.35900605   -0.76033199
 H          2.83401299   -2.03724408    0.45244300
 H         -0.41427201    0.06525600    0.10927100
 H          1.46959102    1.72412503    0.69748402
 C          4.03342199   -3.31174898   -1.41118097
 H          0.86237198   -1.85742903   -2.42646289
 H          3.29039502   -0.28926599    1.80893004
 H          4.78867817    0.06177200    0.93435597
 H          0.98193002    0.77794403   -1.91383505
 H          0.82382500    0.16906600    2.22977710
 H          4.36243820    2.27557492    1.34426200
 H          4.26908112   -3.65157294   -0.39729300
 H          4.76405287   -2.56476212   -1.72858202
 H          4.05208588   -4.15857983   -2.09564495
 H          0.47856301   -2.35805392   -0.08671500
 C         -3.32438803    2.25592709    0.89805597
 C         -1.84835804    1.87635505    0.59788001
 C         -4.23220015    1.15515900    0.33815899
 C         -3.98632693   -0.13547499    1.12700903
 C         -2.46023989   -0.42552900    1.12690103
 N         -1.84777105    0.47839701    0.14466000
 H         -3.54763889    3.21707511    0.43222699
 H         -1.41940904    2.48031712   -0.19992401
 H         -5.27867699    1.45296097    0.42100200
 H         -4.33145523   -0.03319600    2.15701103
 H         -2.23527193   -1.45050204    0.83180302
 H         -3.47299790    2.35671306    1.97499502
 H         -1.21797395    1.94744503    1.48493803
 C         -3.86655092    0.91442603   -1.13128495
 H         -4.52378178   -0.96786702    0.66845500
 H         -2.00440311   -0.21959500    2.09449601
 C         -2.42960310    0.32528600   -1.19669700
 H         -3.90915489    1.85256505   -1.68824399
 H         -4.56176376    0.21185200   -1.59378898
 H         -1.79689002    0.85658503   -1.90558004
 H         -2.42858505   -0.73666102   -1.43761802
