48
wb97x-d4 ma-def2-tzvp(-f) cpcm(dmso) E: -1056.425304807619, G: -1056.0485035000002
 C          2.51655698   -1.66728199   -0.40655801
 C          0.99752700   -1.46347201   -0.38765499
 O          0.48392200   -1.31622899   -1.70172799
 C          0.68943202   -0.17712200    0.36939701
 O          0.82250202   -0.28521401    1.73996305
 C          1.48634505    1.02085495   -0.14366999
 C          2.98230410    0.67229903   -0.23001499
 C          3.69479108    0.67821801    1.12232101
 O          5.08936787    0.42969400    0.98315799
 O          3.16739988   -0.53956598   -0.96396202
 O          0.98752600    1.44338500   -1.40284801
 O          2.77267003   -2.76130009   -1.22136605
 H          3.44501305    1.44187903   -0.85405499
 H          2.87702489   -1.85414505    0.61351699
 H         -0.45725000    0.08767800    0.12007700
 H          1.35182297    1.85560906    0.54797900
 C          4.11907291   -3.23840094   -1.12939894
 H          0.87709802   -2.00929499   -2.24973297
 H          3.51346493    1.65103304    1.59350395
 H          3.31418204   -0.08940300    1.79376197
 H          0.93564498    0.66078401   -1.97289896
 H          0.52841902   -1.15698600    2.04030800
 H          5.48023605    1.16045904    0.48912999
 H          4.36202812   -3.48141289   -0.08977700
 H          4.82260895   -2.49335289   -1.50711203
 H          4.17333078   -4.13898182   -1.73924506
 H          0.53540999   -2.31850791    0.12073900
 C         -3.36868095    2.30776191    0.79634601
 C         -1.88998306    1.91243303    0.53098702
 C         -4.27263689    1.18181801    0.28259099
 C         -4.03282213   -0.07113800    1.13178301
 C         -2.50750089   -0.36393300    1.15321600
 N         -1.88566899    0.49636701    0.13690300
 H         -3.58607507    3.24451494    0.28070301
 H         -1.45018494    2.48157811   -0.28639501
 H         -5.31961203    1.48286104    0.34521899
 H         -4.38341093    0.07976900    2.15394497
 H         -2.28357792   -1.40125501    0.90363997
 H         -3.52819395    2.46246195    1.86524296
 H         -1.27075303    2.01900911    1.42200196
 C         -3.89817595    0.87276202   -1.17139900
 H         -4.56933784   -0.92295402    0.70929402
 H         -2.05770493   -0.11647000    2.11431503
 C         -2.45876193    0.28709099   -1.20125401
 H         -3.94221711    1.78251803   -1.77354598
 H         -4.58850384    0.14583001   -1.60253000
 H         -1.82248104    0.79149503   -1.92630398
 H         -2.45217109   -0.78373998   -1.39859104
