48
wb97x-d4 ma-def2-tzvp(-f) cpcm(dmso) E: -1056.425041275936, G: -1056.0484529
 C          2.43887210   -1.79385304   -0.06429300
 C          0.95335901   -1.45294797    0.08353200
 O          0.25358900   -1.70262003   -1.12686205
 C          0.80240500    0.02944200    0.38874501
 O          1.04810798    0.24184200    1.73287594
 C          1.58521295    0.92673099   -0.57502300
 C          3.03199196    0.43226600   -0.72131801
 C          3.94284797    0.76942402    0.46420199
 O          4.06637287    2.17789507    0.62778598
 O          3.05797100   -0.96073401   -1.03341198
 O          0.93485200    0.97912502   -1.83471406
 O          2.50976992   -3.10290909   -0.51785898
 H          3.44075394    0.92606401   -1.60704005
 H          2.94260597   -1.69226003    0.90601701
 H         -0.34722501    0.27506500    0.16154300
 H          1.60107696    1.94758904   -0.18627800
 C          3.82853508   -3.65689206   -0.47997200
 H          0.53453302   -2.56829309   -1.45333803
 H          3.54852700    0.38884801    1.40569794
 H          4.91667795    0.30162901    0.28543001
 H          0.78224999    0.06658600   -2.12291789
 H          1.13203597    1.18950903    1.91020298
 H          4.57292604    2.52678704   -0.11537300
 H          4.24063492   -3.58168101    0.53147799
 H          4.48634291   -3.14459300   -1.18530095
 H          3.73363304   -4.70483398   -0.76062399
 H          0.53917098   -2.04072094    0.90956402
 C         -3.43621206    2.30889702    0.62881899
 C         -1.93658102    1.91139805    0.71333200
 C         -4.24838495    1.06068504    0.26663399
 C         -3.89109206   -0.06188700    1.24786901
 C         -2.40875292   -0.46470600    1.01345801
 N         -1.81602001    0.56203401    0.14586601
 H         -3.57409406    3.08285594   -0.12881801
 H         -1.30021000    2.58066297    0.13474600
 H         -5.31609011    1.27960205    0.31906399
 H         -4.02847004    0.27617699    2.27691007
 H         -2.31769609   -1.42119503    0.49982899
 H         -3.75448108    2.71304393    1.59107196
 H         -1.58079505    1.87056005    1.74283302
 C         -3.86813807    0.61595201   -1.15005803
 H         -4.52696991   -0.93421102    1.08869696
 H         -1.84026897   -0.49513301    1.94314206
 C         -2.32109308    0.48993799   -1.23343301
 H         -4.20648909    1.34425294   -1.88893604
 H         -4.33330488   -0.34459001   -1.38114202
 H         -1.86916399    1.30782700   -1.79125404
 H         -2.00352812   -0.45862699   -1.66137505
