48
wb97x-d4 ma-def2-tzvp(-f) cpcm(dmso) E: -1056.423671321712, G: -1056.04840239
 C          2.36912704   -1.99954498   -0.04886600
 C          0.89428699   -1.55594802   -0.20852201
 O          0.56480598   -1.21164703   -1.54103303
 C          0.65439397   -0.32166800    0.64019400
 O          0.59132397   -0.70747000    1.96789706
 C          1.61048806    0.84385300    0.34699699
 C          2.89011908    0.30678201   -0.31209400
 C          4.07882595    1.23427904   -0.13800000
 O          4.40032911    1.46319604    1.22951102
 O          3.22941399   -0.93862998    0.29934499
 O          0.96155101    1.78454006   -0.49815601
 O          2.73193312   -2.59700298   -1.26136899
 H          2.70724702    0.17374399   -1.38230300
 H          2.45681500   -2.71866012    0.77078402
 H         -0.42292100    0.08381300    0.31317201
 H          1.87037897    1.31126702    1.30138803
 C          3.99044895   -3.27221704   -1.21661103
 H          1.05811405   -1.81033695   -2.11876011
 H          4.93639612    0.81273103   -0.67330098
 H          3.84421992    2.20685601   -0.57624400
 H          1.35202599    2.65244389   -0.34557500
 H          0.68108797    0.06516500    2.54237700
 H          4.66591883    0.61886603    1.61359203
 H          4.80662107   -2.56145906   -1.06854403
 H          4.11099577   -3.77387691   -2.17575908
 H          3.99590111   -4.01240206   -0.40958899
 H          0.25643000   -2.37110496    0.14898700
 C         -3.52239108    2.05828094    0.97441101
 C         -2.06349206    1.55429399    1.15578997
 C         -4.27221203    1.06262898    0.08100100
 C         -4.10186291   -0.34436399    0.66564900
 C         -2.60605192   -0.74526203    0.54571599
 N         -1.86107194    0.46850601    0.18738100
 H         -3.51870799    3.04932499    0.51628500
 H         -1.32916200    2.33140111    0.94975603
 H         -5.33051109    1.32434702    0.03363200
 H         -4.41034698   -0.35857800    1.71294701
 H         -2.43827796   -1.47804201   -0.24320100
 H         -3.99917197    2.13706493    1.95270002
 H         -1.89215100    1.14465904    2.15143394
 C         -3.65596294    1.09363604   -1.32248902
 H         -4.71033716   -1.06869900    0.12200500
 H         -2.20595908   -1.12596703    1.48574996
 C         -2.11998892    0.89627701   -1.19474399
 H         -3.85327792    2.04920006   -1.81111801
 H         -4.08480215    0.30091500   -1.93894899
 H         -1.56804097    1.81918705   -1.35921705
 H         -1.74250400    0.12561999   -1.86425698
