48
wb97x-d4 ma-def2-tzvp(-f) cpcm(dmso) E: -1056.425034618105, G: -1056.04823338
 C          2.68249702   -1.37348795    0.70220202
 C          1.21005404   -1.04127002    0.95839500
 O          0.36948201   -2.11459804    0.56036401
 C          0.82473999    0.16697800    0.12049500
 O          1.30010700    1.31074095    0.73436302
 C          1.19300604    0.00860800   -1.35777104
 C          2.65164089   -0.44891599   -1.50932598
 C          3.68862796    0.66149497   -1.30726004
 O          3.54135704    1.68031299   -2.29097104
 O          2.91905093   -1.58228803   -0.68295401
 O          0.30061799   -0.89864099   -1.98500800
 O          2.95381188   -2.55979705    1.36742699
 H          2.75473905   -0.81807500   -2.53335810
 H          3.31814289   -0.56239903    1.08142197
 H         -0.37405500    0.19969200    0.12443000
 H          1.07735205    0.96876502   -1.86654997
 C          4.34658909   -2.88390493    1.42471004
 H          0.75743598   -2.93297410    0.89879000
 H          3.58102202    1.15502203   -0.34190699
 H          4.68362617    0.20640001   -1.35054302
 H          0.27886400   -1.70373797   -1.44494998
 H          1.23193097    2.06409907    0.13105699
 H          3.79764104    1.31540000   -3.14655209
 H          4.90814877   -2.05642891    1.87036502
 H          4.73792887   -3.10018706    0.42839399
 H          4.43436289   -3.76829910    2.05407810
 H          1.08199596   -0.80869901    2.02048993
 C         -4.11229420   -0.27874100    0.11777500
 C         -2.62341309   -0.65643102   -0.12400400
 C         -4.20867300    1.23821604    0.31957600
 C         -3.52116299    1.94110203   -0.85593498
 C         -2.00596499    1.60232401   -0.81495398
 N         -1.82618999    0.53988200    0.18339700
 H         -4.48994589   -0.80043000    0.99942601
 H         -2.28951406   -1.46248198    0.52667302
 H         -5.25461721    1.54348195    0.37946501
 H         -3.95079899    1.60360301   -1.80114806
 H         -1.40182102    2.45438004   -0.50206500
 H         -4.70486879   -0.59314698   -0.74295002
 H         -2.42776895   -0.92463303   -1.16085303
 C         -3.47711611    1.60915005    1.61467004
 H         -3.65003395    3.02253604   -0.78971797
 H         -1.64277101    1.23153198   -1.77281594
 C         -2.04100204    1.01869297    1.55514097
 H         -3.99614096    1.20063305    2.48318601
 H         -3.43023801    2.69428205    1.72502995
 H         -1.91696405    0.16620301    2.22251606
 H         -1.27941597    1.76603198    1.77775002
