48
wb97x-d4 ma-def2-tzvp(-f) cpcm(dmso) E: -1056.42497678326, G: -1056.04821616
 C          2.60609293   -1.31254101    0.70670801
 C          1.13280404   -0.92775100    0.85893202
 O          0.28259000   -1.98032701    0.42735001
 C          0.83915502    0.27285501   -0.02494000
 O          1.30122995    1.41579795    0.60021800
 C          1.30209994    0.07875600   -1.47156096
 C          2.75252390   -0.42713800   -1.51630700
 C          3.81175804    0.65170002   -1.26498795
 O          3.76192808    1.65652204   -2.27258110
 O          2.92584491   -1.55425501   -0.65639502
 O          0.42994499   -0.81174302   -2.14869809
 O          2.79190493   -2.49375510    1.40919495
 H          2.91062093   -0.81813502   -2.52508998
 H          3.24205494   -0.51524901    1.11367905
 H         -0.35668299    0.32541400   -0.08936800
 H          1.24968004    1.03405404   -1.99894094
 C          4.16596508   -2.84963393    1.59111297
 H          0.60960799   -2.80208206    0.81771600
 H          3.66031289    1.16556001   -0.31601301
 H          4.79145718    0.16340800   -1.23786294
 H          0.35231099   -1.61112106   -1.60605299
 H          1.29093003    2.15894890   -0.01916200
 H          4.06985283    1.27037597   -3.10132194
 H          4.70747900   -2.02909088    2.07299304
 H          4.63642406   -3.09079790    0.63540602
 H          4.17724705   -3.72607088    2.23741698
 H          0.94470698   -0.66989899    1.90640998
 C         -4.07576084   -0.25169000   -0.29279801
 C         -2.57839990   -0.44873700   -0.66125798
 C         -4.22561216    1.07427704    0.46224099
 C         -3.57649112    2.18844390   -0.36713499
 C         -2.04675388    1.92427695   -0.43120801
 N         -1.82111597    0.56675398    0.08511000
 H         -4.41802883   -1.08132398    0.32927701
 H         -2.20582604   -1.42942905   -0.37164900
 H         -5.28126812    1.29554498    0.62722403
 H         -3.99405599    2.20142794   -1.37581599
 H         -1.48475397    2.61480093    0.19745700
 H         -4.67031384   -0.24496000   -1.20775902
 H         -2.38856196   -0.28734800   -1.72079897
 C         -3.49282289    0.96786702    1.80448902
 H         -3.75301290    3.16466498    0.08708700
 H         -1.66375196    1.96718597   -1.45066094
 C         -2.04487991    0.47546801    1.53403401
 H         -3.99375200    0.25895399    2.46563911
 H         -3.47114801    1.93980896    2.30129504
 H         -1.90295899   -0.56515700    1.82306302
 H         -1.30056596    1.09536803    2.03431010
