48
wb97x-d4 ma-def2-tzvp(-f) cpcm(dmso) E: -1056.43311846123, G: -1056.0560620400001
 C          2.42972803   -0.57122302    1.17888105
 C          2.03505397    0.87153298    1.46683598
 O          1.38663805    1.02405500    2.71367002
 C          1.19611800    1.42819595    0.32114801
 O          0.83519101    2.74697304    0.49959201
 C          1.85585701    1.21704400   -1.03409898
 C          2.28445292   -0.24244501   -1.18916297
 C          3.15444589   -0.44393900   -2.41591907
 O          3.47644305   -1.81604099   -2.61038303
 O          3.07588792   -0.65494502   -0.07041700
 O          0.97673601    1.52697694   -2.10116696
 O          1.25537300   -1.32844198    1.24702799
 H          1.39959896   -0.88061303   -1.27078402
 H          3.16217804   -0.92773402    1.91003704
 H          0.13610800    0.79806203    0.26977599
 H          2.74813199    1.85693705   -1.06738698
 C          1.47891200   -2.74068189    1.23465800
 H          0.81391102    0.25652099    2.84772897
 H          2.61158800   -0.11457700   -3.30150795
 H          4.06451178    0.15977800   -2.31396794
 H          0.92069501    2.48626900   -2.18401909
 H          0.63878500    2.88872695    1.43886197
 H          3.95926905   -2.11548805   -1.83024395
 H          1.89032996   -3.05849600    0.27328300
 H          0.50961697   -3.21206903    1.39223897
 H          2.16372991   -3.02289200    2.04044199
 H          2.95138192    1.46850204    1.51008999
 C         -2.84995699   -1.22827399   -0.73747402
 C         -1.37570703   -0.74445802   -0.75410801
 C         -3.70615506   -0.16438900   -0.04309700
 C         -3.43159699    1.19166994   -0.70052898
 C         -1.96436596    1.59905803   -0.40080500
 N         -1.27988100    0.41615400    0.14853901
 H         -2.92451692   -2.17856789   -0.20479800
 H         -0.69280201   -1.51014400   -0.39272299
 H         -4.76410818   -0.41812399   -0.12712000
 H         -3.58634901    1.12603903   -1.77949500
 H         -1.90456200    2.38886499    0.34667099
 H         -3.18558311   -1.38731205   -1.76359296
 H         -1.06220305   -0.41423300   -1.74344897
 C         -3.29515290   -0.08965300    1.43088305
 H         -4.10296583    1.95688796   -0.30752501
 H         -1.43264306    1.90959799   -1.29729795
 C         -1.75650597    0.09658200    1.50487101
 H         -3.56984401   -1.00550902    1.95674300
 H         -3.79714298    0.74707901    1.92081904
 H         -1.24801803   -0.81134599    1.82504404
 H         -1.48061895    0.92008698    2.16322994
