48
wb97x-d4 ma-def2-tzvp(-f) cpcm(dmso) E: -1056.424992206446, G: -1056.0481931900001
 C          2.54639411   -1.77438998    0.14573400
 C          1.04145598   -1.54570401    0.31337699
 O          0.31807700   -2.09073591   -0.77960098
 C          0.77800900   -0.04872200    0.33324000
 O          1.12384701    0.45007899    1.57549298
 C          1.39492202    0.68033898   -0.86311197
 C          2.87005806    0.28824401   -1.03640604
 C          3.83073497    0.97189301   -0.05696000
 O          3.80279803    2.38635397   -0.21506900
 O          3.02548099   -1.13125896   -1.02693796
 O          0.64875102    0.40418699   -2.03836298
 O          2.73960495   -3.13942099   -0.00545200
 H          3.15270400    0.59380502   -2.04757690
 H          3.07839608   -1.40424800    1.03155398
 H         -0.40450901    0.08126200    0.18344600
 H          1.33916700    1.75925601   -0.69992602
 C          4.11173487   -3.53866792    0.07156000
 H          0.66169602   -2.97877502   -0.94665003
 H          3.56487203    0.77817798    0.98172200
 H          4.83410978    0.57104498   -0.23420000
 H          0.55639398   -0.55890298   -2.10356402
 H          1.14806700    1.41685200    1.55027699
 H          4.20596409    2.60572505   -1.06362700
 H          4.12100410   -4.62745094    0.04863200
 H          4.55480099   -3.18556404    1.00840497
 H          4.67928982   -3.14710402   -0.77528101
 H          0.72125798   -1.98740995    1.26260102
 C         -3.77868009    0.64164799    1.66178596
 C         -2.25966597    0.31893700    1.59593999
 C         -4.20992613    1.22823501    0.31329799
 C         -4.04963589    0.15393300   -0.76875597
 C         -2.59656692   -0.39778301   -0.71475500
 N         -1.84323096    0.47613400    0.19612800
 H         -3.96066999    1.35239697    2.46941400
 H         -1.66778302    1.00856698    2.19674802
 H         -5.24932289    1.55691803    0.36321399
 H         -4.75037003   -0.66640502   -0.60521698
 H         -2.11008191   -0.37461799   -1.68804705
 H         -4.34237194   -0.26859999    1.87558806
 H         -2.04216790   -0.70454001    1.90076303
 C         -3.29966211    2.41299200   -0.02724500
 H         -4.24826193    0.57982397   -1.75429296
 H         -2.55313802   -1.40880799   -0.31301099
 C         -1.85538197    1.88014805   -0.23694900
 H         -3.31340790    3.14515209    0.78252101
 H         -3.63510799    2.90796208   -0.93994302
 H         -1.12634206    2.42621112    0.36218300
 H         -1.55330002    1.90283096   -1.28268301
