48
wb97x-d4 ma-def2-tzvp(-f) cpcm(dmso) E: -1056.423236163549, G: -1056.0481787400001
 C          2.65426397   -1.08818495    1.21603096
 C          1.12334001   -0.87866700    1.11129701
 O          0.47162801   -1.90562296    0.38840899
 C          0.84189600    0.42307401    0.38240501
 O          1.08958900    1.47550905    1.24531400
 C          1.51590300    0.54005998   -0.99115199
 C          2.70414495   -0.43376499   -1.06285799
 C          3.71999788   -0.00575700   -2.10636711
 O          3.03776693    0.03852100   -3.36263609
 O          3.37226200   -0.43009001    0.19345900
 O          0.56068999    0.28194800   -2.00651693
 O          2.86749005   -2.46986103    1.20483601
 H          2.33006907   -1.43390906   -1.30129504
 H          3.02675509   -0.65254802    2.14756703
 H         -0.33348900    0.39461300    0.15185501
 H          1.90048802    1.56464398   -1.08576703
 C          4.19285107   -2.84884191    1.58071995
 H          0.91649902   -2.73511291    0.61031097
 H          4.11433792    0.98179299   -1.84435403
 H          4.54517984   -0.72415799   -2.13460898
 H          1.05188096    0.28321901   -2.84205890
 H          1.17876005    2.29852200    0.74523300
 H          3.58354211    0.52172297   -3.99263096
 H          4.21247196   -3.93748808    1.60576403
 H          4.43370914   -2.45227909    2.57250500
 H          4.92165184   -2.48502707    0.85277200
 H          0.72720200   -0.81308502    2.13016391
 C         -3.94995499   -0.11021400   -0.76341200
 C         -2.43827009   -0.46191701   -0.67090398
 C         -4.26571798    0.98445201    0.26328400
 C         -3.53197289    2.26807404   -0.13981800
 C         -2.03251600    1.92652404   -0.35686201
 N         -1.81553102    0.57164598    0.16839500
 H         -4.53843212   -1.00774002   -0.56597698
 H         -2.26498008   -1.42313695   -0.19028001
 H         -5.34141922    1.16313899    0.30362299
 H         -3.94240594    2.67706203   -1.06444502
 H         -1.37658000    2.61009502    0.18282101
 H         -4.18921423    0.23816900   -1.77020097
 H         -1.94787204   -0.44950101   -1.64194000
 C         -3.75387502    0.53816700    1.63719702
 H         -3.63474798    3.02299690    0.64225101
 H         -1.75817299    1.91665006   -1.41044497
 C         -2.20304298    0.45144701    1.58021104
 H         -4.17022800   -0.43684500    1.89795601
 H         -4.04530382    1.25117397    2.41002011
 H         -1.83607900   -0.50377798    1.95431399
 H         -1.72457802    1.26430905    2.12581706
