48
wb97x-d4 ma-def2-tzvp(-f) cpcm(dmso) E: -1056.425582436213, G: -1056.04796794
 C          2.52352095   -1.72586000    0.71583998
 C          1.15975499   -1.18441105    1.20058203
 O          0.11883600   -2.12327909    1.02328002
 C          0.88782799    0.17747800    0.53279501
 O          1.15411794    1.21390498    1.40636897
 C          1.53190696    0.34742999   -0.84005398
 C          3.05372095    0.09544100   -0.73284501
 C          3.86524796    1.37333202   -0.71839398
 O          3.39521503    2.24605894    0.31621501
 O          3.39927912   -0.65786397    0.44045901
 O          0.90720701   -0.49238300   -1.79849005
 O          2.28547311   -2.52699399   -0.41403300
 H          3.35873604   -0.46531799   -1.62256706
 H          3.01036310   -2.31555390    1.49731600
 H         -0.28329799    0.17546600    0.33126199
 H          1.35863304    1.37088895   -1.18066394
 C          3.40599394   -3.33113503   -0.80163598
 H          0.34296900   -2.67848110    0.26407999
 H          4.91882992    1.13061905   -0.55233401
 H          3.75924110    1.85321403   -1.69501901
 H          1.25689101   -1.38838303   -1.67822599
 H          1.82179701    1.81630194    1.01456201
 H          3.63896108    3.15219402    0.09665000
 H          3.07422209   -3.94638395   -1.63623405
 H          3.71303892   -3.96807003    0.03270100
 H          4.24283886   -2.70219707   -1.11431396
 H          1.24306202   -0.98510700    2.27004290
 C         -3.75640893    0.76126701    1.57448697
 C         -2.28748393    0.25449300    1.58484697
 C         -4.17522812    1.00540197    0.11986800
 C         -3.88240790   -0.25620100   -0.70020998
 C         -2.34396911   -0.47292799   -0.74632299
 N         -1.75593495    0.45303500    0.23058701
 H         -3.83786011    1.68506801    2.15071607
 H         -1.66396296    0.81624198    2.28051805
 H         -5.23812294    1.24753499    0.07072000
 H         -4.36719894   -1.12248898   -0.24544001
 H         -1.92168701   -0.23434301   -1.72059703
 H         -4.39609098    0.01094200    2.04209089
 H         -2.21766901   -0.80789399    1.81228197
 C         -3.34455895    2.16521692   -0.44047701
 H         -4.25983620   -0.15103400   -1.71869600
 H         -2.05906200   -1.48533499   -0.46701100
 C         -1.84052002    1.85235703   -0.20386800
 H         -3.60029411    3.10115004    0.05872900
 H         -3.53479695    2.28534794   -1.50877905
 H         -1.40965605    2.46993303    0.58361101
 H         -1.25163805    1.96132898   -1.11439800
