48
wb97x-d4 ma-def2-tzvp(-f) cpcm(dmso) E: -1056.42391298446, G: -1056.0479517600002
 C          2.57195401   -1.75118899    0.08714100
 C          1.06331801   -1.55799997    0.27521601
 O          0.33750200   -2.10130692   -0.81518698
 C          0.77094400   -0.06303800    0.31899300
 O          1.12765503    0.54532301    1.50738001
 C          1.36440599    0.69408602   -0.86717898
 C          2.84259295    0.32982501   -1.07098103
 C          3.80385089    1.01556802   -0.10265200
 O          3.74873209    2.41265607   -0.38699299
 O          3.02085710   -1.08647394   -1.08338797
 O          0.60952997    0.42874101   -2.04075694
 O          2.79273105   -3.11018896   -0.07906300
 H          3.10507488    0.65616900   -2.07987809
 H          3.10729003   -1.37749398    0.97022498
 H         -0.41979101    0.04890100    0.17798100
 H          1.29380095    1.76578200   -0.67590898
 C          4.17559290   -3.47744703   -0.03536800
 H          0.69904602   -2.97822809   -1.00306201
 H          3.53788710    0.83094198    0.94025201
 H          4.80702019    0.61593300   -0.28774300
 H          0.53618997   -0.53373498   -2.12883401
 H          0.94553500   -0.04186500    2.25503206
 H          4.25762892    2.87599802    0.28726000
 H          4.71500301   -3.06498909   -0.89053601
 H          4.20978689   -4.56541014   -0.06869000
 H          4.63029003   -3.12195492    0.89496100
 H          0.76507199   -2.02697897    1.22070599
 C         -3.72728395    0.88178498    1.66798198
 C         -2.32213807    0.23051301    1.54738104
 C         -4.20284224    1.27108705    0.26386300
 C         -4.08920813    0.04874200   -0.65491599
 C         -2.58699107   -0.31496099   -0.81750101
 N         -1.84634900    0.47400200    0.17838500
 H         -3.67620206    1.76476097    2.30804610
 H         -1.60733998    0.67328697    2.24118590
 H         -5.23654413    1.61878502    0.30020499
 H         -4.63270092   -0.79599798   -0.22685599
 H         -2.20120597   -0.04809000   -1.79996502
 H         -4.41328621    0.16793101    2.12668705
 H         -2.35330796   -0.84825802    1.69728303
 C         -3.29178190    2.38046193   -0.27178401
 H         -4.51313686    0.26330900   -1.63730299
 H         -2.39417505   -1.36944103   -0.62864298
 C         -1.81745398    1.90565205   -0.15504000
 H         -3.42020798    3.29850698    0.30378899
 H         -3.53109193    2.59636903   -1.31490004
 H         -1.28253305    2.41831493    0.64428198
 H         -1.27372301    2.02161407   -1.09110999
