48
wb97x-d4 ma-def2-tzvp(-f) cpcm(dmso) E: -1056.426065098345, G: -1056.0478910900001
 C          2.51887703   -1.84274399    0.13140400
 C          1.18845499   -1.46997702    0.81866401
 O          0.13667600   -2.33317208    0.44023600
 C          0.89151502    0.02458400    0.58092397
 O          1.15537000    0.76734400    1.71595895
 C          1.50902903    0.60537201   -0.68739998
 C          3.03166294    0.33875400   -0.69901198
 C          3.84438109    1.54889596   -0.27706501
 O          3.46299291    2.05367303    1.00866306
 O          3.40491009   -0.74810600    0.16224200
 O          0.85604000    0.10400200   -1.84331501
 O          2.22321796   -2.25394106   -1.17894602
 H          3.31535101    0.10093600   -1.73005497
 H          3.02260804   -2.64929700    0.67091697
 H         -0.28430799    0.06289300    0.39569700
 H          1.33390296    1.68409097   -0.69326103
 C          3.31675601   -2.90102005   -1.84121096
 H          0.28824300   -2.60694790   -0.47464001
 H          4.90698719    1.29544401   -0.28020200
 H          3.67203307    2.34879303   -0.99974102
 H          1.18947601   -0.79268003   -2.00238395
 H          1.81963897    1.45840800    1.51100194
 H          3.98340797    1.59338999    1.67825699
 H          4.15108013   -2.20868611   -1.97607100
 H          2.94578505   -3.22587800   -2.81181788
 H          3.64453793   -3.76636910   -1.25823104
 H          1.32846606   -1.58163202    1.89458096
 C         -3.83555603    0.12918900   -0.85537702
 C         -2.37353802   -0.38496500   -0.73776501
 C         -4.15522814    0.98117799    0.37904701
 C         -3.29031992    2.24628305    0.34351900
 C         -1.81007504    1.82047498    0.14504801
 N         -1.74694502    0.36937299    0.35712600
 H         -4.51040220   -0.72583598   -0.92155600
 H         -2.32618809   -1.44038105   -0.47670901
 H         -5.21299219    1.24911904    0.38770899
 H         -3.58786201    2.89836407   -0.47918499
 H         -1.14459395    2.29927707    0.86397201
 H         -3.95023108    0.72415501   -1.76382399
 H         -1.79617596   -0.20993701   -1.64375901
 C         -3.80323005    0.17844200    1.63682997
 H         -3.39809799    2.80332994    1.27631199
 H         -1.45663500    2.02067494   -0.86608303
 C         -2.26313901   -0.02521500    1.67459202
 H         -4.30597115   -0.79069197    1.61900604
 H         -4.11788702    0.70880097    2.53701496
 H         -1.98931599   -1.06487405    1.84808898
 H         -1.78270996    0.60710800    2.42079997
