48
wb97x-d4 ma-def2-tzvp(-f) cpcm(dmso) E: -1056.424252752179, G: -1056.0475250900001
 C          2.46899104   -1.76064205   -0.33900601
 C          0.95487398   -1.51695895   -0.35146499
 O          0.44596800   -1.49810898   -1.67675698
 C          0.70772803   -0.15536200    0.28079599
 O          0.78024602   -0.21558100    1.65606296
 C          1.50390899    0.96308398   -0.39427099
 C          2.99373889    0.59951597   -0.53941101
 C          3.85885906    0.93100101    0.66552502
 O          3.36209989    0.32050100    1.86344099
 O          3.15852308   -0.73094302   -1.03563595
 O          0.93691403    1.25241899   -1.66544402
 O          2.69544101   -2.94981289   -1.01733005
 H          3.37550092    1.23416102   -1.34284496
 H          2.82648492   -1.82481694    0.69623798
 H         -0.44946799    0.11019100    0.03082700
 H          1.41780102    1.87460005    0.20247000
 C          4.02065182   -3.46369791   -0.85193801
 H          0.82382703   -2.25160289   -2.15017390
 H          4.87797117    0.58642101    0.46851000
 H          3.86783695    2.01983595    0.77738202
 H          0.84215999    0.41004801   -2.13770008
 H          1.63718700    0.16643800    1.95118499
 H          3.84545398    0.67802399    2.61765790
 H          4.04704714   -4.42722893   -1.35879397
 H          4.24162197   -3.60045004    0.21157800
 H          4.75762701   -2.79246211   -1.29836905
 H          0.47033000   -2.29238605    0.25021401
 C         -3.29409289    2.21493006    1.03662097
 C         -1.82225704    1.83622205    0.72385800
 C         -4.21338701    1.21355796    0.32863101
 C         -4.01105785   -0.17054699    0.95506501
 C         -2.49506307   -0.50450301    0.93343401
 N         -1.83803201    0.50810802    0.09143800
 H         -3.48522210    3.23079395    0.68707198
 H         -1.35837400    2.52716804    0.02042500
 H         -5.25465918    1.52359104    0.43011799
 H         -4.36774111   -0.18528700    1.98612106
 H         -2.29431605   -1.48396599    0.49971199
 H         -3.46641994    2.18820190    2.11439395
 H         -1.21262705    1.77335203    1.62535906
 C         -3.82595396    1.14592803   -1.15336204
 H         -4.56614590   -0.92355001    0.39217100
 H         -2.04647708   -0.44873399    1.92459500
 C         -2.39768910    0.54611802   -1.26991296
 H         -3.84670901    2.14462399   -1.59445798
 H         -4.52496290    0.51635599   -1.70637095
 H         -1.74163103    1.15576899   -1.88798702
 H         -2.40651011   -0.47431901   -1.64966798
