48
wb97x-d4 ma-def2-tzvp(-f) cpcm(dmso) E: -1056.423257490049, G: -1056.04738771
 C          2.31661201   -2.10477400   -0.05169600
 C          0.86259800   -1.60199106   -0.22585499
 O          0.58822602   -1.16050601   -1.54185498
 C          0.63057899   -0.42400700    0.70379603
 O          0.50423902   -0.90607399    1.99485505
 C          1.63599098    0.72254199    0.53621799
 C          2.90740895    0.19191200   -0.14625500
 C          4.11053514    1.07331502    0.13472000
 O          3.78623390    2.38553405   -0.33171099
 O          3.20393395   -1.09596205    0.38268501
 O          1.03338099    1.76654100   -0.20968901
 O          2.69481397   -2.64580011   -1.28474402
 H          2.73413706    0.13918400   -1.22510803
 H          2.35562301   -2.87064099    0.72822303
 H         -0.42224100    0.04218600    0.37056500
 H          1.90289605    1.08035803    1.53949499
 C          3.91709590   -3.38507390   -1.23938894
 H          1.06884897   -1.74648201   -2.14278197
 H          4.30997515    1.08297002    1.21146905
 H          4.98713303    0.67806500   -0.38814300
 H          1.73020697    2.42249393   -0.36236101
 H          0.59720099   -0.18178000    2.62902999
 H          4.42484093    3.00893497    0.03100000
 H          4.04480314   -3.83955002   -2.22087789
 H          3.85976410   -4.16725922   -0.47518501
 H          4.76145411   -2.72539806   -1.02708995
 H          0.19000500   -2.41940689    0.05484700
 C         -3.50047588    2.06953692    0.97028297
 C         -2.06194592    1.52857494    1.19935501
 C         -4.23822021    1.10398805    0.03459000
 C         -4.11282778   -0.31564400    0.60001701
 C         -2.62264705   -0.74469799    0.51587301
 N         -1.84296596    0.46239099    0.21199800
 H         -3.45679688    3.06641102    0.52698100
 H         -1.30217600    2.29279208    1.04535496
 H         -5.28935385    1.38607800   -0.04428300
 H         -4.45153522   -0.34050000    1.63773704
 H         -2.44517493   -1.46082795   -0.28618899
 H         -4.01193285    2.14598894    1.93106198
 H         -1.94255996    1.08914495    2.18985701
 C         -3.57314301    1.14739597   -1.34627104
 H         -4.71945190   -1.01882005    0.02728400
 H         -2.25899911   -1.15664995    1.45743001
 C         -2.04563403    0.92768699   -1.16797996
 H         -3.74093008    2.11226511   -1.82760298
 H         -3.99018407    0.36927101   -1.98897600
 H         -1.47628999    1.84719598   -1.28845704
 H         -1.65305400    0.16908801   -1.84222603
