48
wb97x-d4 ma-def2-tzvp(-f) cpcm(dmso) E: -1056.423474944996, G: -1056.04731442
 C          2.49084401   -1.66512096    0.86444902
 C          0.98778600   -1.33048999    0.71844703
 O          0.42606401   -1.82675302   -0.48202801
 C          0.80608797    0.17674699    0.70608699
 O          0.93828398    0.64327198    2.00158095
 C          1.65391600    0.91020697   -0.34219801
 C          2.80642891    0.00195400   -0.79895300
 C          3.94119191    0.80242997   -1.42149198
 O          3.46477103    1.56823695   -2.53124809
 O          3.33625102   -0.65908200    0.34530300
 O          0.82379502    1.29615402   -1.42494798
 O          2.68517399   -2.89534402    0.22923100
 H          2.42648602   -0.72222102   -1.52606404
 H          2.75394702   -1.73806596    1.92370498
 H         -0.32706901    0.34194800    0.35054401
 H          2.08427596    1.79846394    0.13943601
 C          3.95011997   -3.49523902    0.51655602
 H          0.82968003   -2.68950009   -0.64948601
 H          4.33238506    1.51231802   -0.68876302
 H          4.74813414    0.13032700   -1.72516406
 H          1.41552699    1.66674304   -2.09741211
 H          1.08631098    1.59879899    1.99746799
 H          3.44927001    0.99765003   -3.30913711
 H          3.95648289   -4.46609592    0.02318500
 H          4.06949091   -3.62916398    1.59667397
 H          4.76704216   -2.88167691    0.12964700
 H          0.46842200   -1.74706495    1.58780098
 C         -3.90323901    0.05532300    1.32561398
 C         -2.39648795   -0.31438199    1.23411906
 C         -4.24755907    0.97731102    0.14932100
 C         -3.78410912    0.30889100   -1.15080702
 C         -2.23191810    0.22142200   -1.14165103
 N         -1.79655397    0.56272697    0.22046299
 H         -4.10788393    0.55728197    2.27333808
 H         -1.87640500   -0.14948601    2.17810798
 H         -5.32321787    1.15791500    0.11703700
 H         -4.21368790   -0.69172001   -1.23295796
 H         -1.77189505    0.93581599   -1.82068896
 H         -4.49762821   -0.85900098    1.28947794
 H         -2.24350905   -1.34354997    0.91069400
 C         -3.49524999    2.30044699    0.32471201
 H         -4.10400486    0.88802499   -2.01866603
 H         -1.87053001   -0.77939200   -1.37081301
 C         -1.98748696    1.98632300    0.52773499
 H         -3.86936688    2.84607506    1.19240296
 H         -3.62761402    2.93013000   -0.55734003
 H         -1.67117500    2.14703703    1.55849695
 H         -1.35157597    2.56337595   -0.14181601
