48
wb97x-d4 ma-def2-tzvp(-f) cpcm(dmso) E: -1056.424256235368, G: -1056.0472773200001
 C          2.52843308   -1.73801398    0.10329500
 C          1.00926101   -1.55534995    0.21031600
 O          0.34406900   -2.09331012   -0.92219502
 C          0.74289203   -0.05738700    0.26878101
 O          1.01321805    0.44881499    1.52179801
 C          1.35292101    0.69376302   -0.91662598
 C          2.83261299    0.32458201   -1.13308704
 C          3.82267308    1.14976299   -0.32645100
 O          3.52863693    1.11960399    1.07646894
 O          3.03741693   -1.08736801   -1.05272400
 O          0.59380001    0.42576799   -2.08912492
 O          2.76781011   -3.09778595   -0.03928900
 H          3.04900694    0.56628299   -2.17646503
 H          3.01514697   -1.34642696    1.00538194
 H         -0.45430100    0.07487500    0.11612600
 H          1.28131902    1.76914799   -0.73623502
 C          4.14713192   -3.45628691    0.08896000
 H          0.72144902   -2.96483397   -1.10293198
 H          4.82859516    0.75843400   -0.50345403
 H          3.77254391    2.17923307   -0.69435000
 H          0.50155997   -0.53766900   -2.15968394
 H          1.85752904    0.95245397    1.49155200
 H          4.06281614    1.78917098    1.51975405
 H          4.54265118   -3.09907103    1.04535401
 H          4.73600721   -3.04048610   -0.73147100
 H          4.19054890   -4.54408121    0.05771500
 H          0.66306603   -2.02427697    1.13661301
 C         -3.68338299    0.88759297    1.70122302
 C         -2.27559209    0.25250000    1.54803705
 C         -4.20981503    1.24308300    0.30606300
 C         -4.10648918    0.00602700   -0.59445798
 C         -2.60596490   -0.33716300   -0.79980099
 N         -1.84380698    0.47891200    0.15954100
 H         -3.62413907    1.78410304    2.32155609
 H         -1.54110706    0.71170902    2.20879412
 H         -5.24703693    1.57598805    0.36914700
 H         -4.62258911   -0.83906800   -0.13430600
 H         -2.25535202   -0.08088400   -1.79836798
 H         -4.34522390    0.17497000    2.19596291
 H         -2.28835297   -0.82438803    1.71439898
 C         -3.33330011    2.35543704   -0.27958700
 H         -4.56599283    0.19669400   -1.56570494
 H         -2.38990688   -1.38532901   -0.60069501
 C         -1.84963703    1.90645301   -0.19807699
 H         -3.45975089    3.28327107    0.28050700
 H         -3.60795307    2.54543400   -1.31906497
 H         -1.30003798    2.43989396    0.57739502
 H         -1.33338296    2.01521707   -1.15059304
