48
wb97x-d4 ma-def2-tzvp(-f) cpcm(dmso) E: -1056.423861984438, G: -1056.04716639
 C          2.38152099   -2.03175402   -0.11543600
 C          0.93455601   -1.76544702    0.37697801
 O         -0.05860900   -2.20385909   -0.53044498
 C          0.75061703   -0.26635101    0.63919997
 O          0.81671399    0.01725100    1.98817301
 C          1.63174498    0.62356901   -0.23062301
 C          3.11547399    0.23788799   -0.03183500
 C          3.85181308    1.16972101    0.91307700
 O          3.22565889    1.27870202    2.19768810
 O          3.26339889   -1.09704900    0.47278899
 O          1.22487497    0.55060399   -1.58686805
 O          2.40695310   -1.98047900   -1.51442301
 H          3.60544205    0.31764701   -1.00847495
 H          2.72884393   -3.01075006    0.22910801
 H         -0.36480600   -0.02961500    0.28367400
 H          1.48761404    1.66376805    0.07128600
 C          3.64691710   -2.42284799   -2.07562494
 H          0.07647900   -3.14253592   -0.70807999
 H          4.88449383    0.83228803    1.02801001
 H          3.85701299    2.16928196    0.47413799
 H          1.51604199   -0.30968001   -1.93128598
 H          1.51724505    0.68364501    2.15194702
 H          3.59100699    0.59299499    2.76986694
 H          3.85602689   -3.44853997   -1.75670505
 H          4.47061300   -1.77104104   -1.77441597
 H          3.52855396   -2.38880992   -3.15755510
 H          0.82881999   -2.26867700    1.34214795
 C         -3.19015098    2.39788294    0.40810999
 C         -1.75720894    1.82823598    0.60524100
 C         -4.12104511    1.24859798    0.00721900
 C         -4.00878191    0.13539401    1.05516899
 C         -2.56514692   -0.43911299    1.01314700
 N         -1.77533305    0.43680999    0.13739499
 H         -3.17922592    3.16447592   -0.36917299
 H         -1.01839006    2.37351704    0.01876400
 H         -5.15082598    1.60522902   -0.05078600
 H         -4.22487020    0.53070599    2.04966497
 H         -2.53088999   -1.44135594    0.58962899
 H         -3.52647805    2.86007094    1.33752298
 H         -1.45653903    1.82183003    1.65258503
 C         -3.67698002    0.69771498   -1.35241306
 H         -4.71968603   -0.66543603    0.84541899
 H         -2.09620094   -0.44496199    1.99702704
 C         -2.16965508    0.32380801   -1.27355599
 H         -3.82176089    1.44358301   -2.13586402
 H         -4.26524305   -0.18512000   -1.61080897
 H         -1.54349899    1.00575304   -1.84551203
 H         -1.97711003   -0.69754398   -1.59508801
