48
wb97x-d4 ma-def2-tzvp(-f) cpcm(dmso) E: -1056.423661507214, G: -1056.04703917
 C          2.69972610   -1.25025201    1.05121899
 C          1.38401794   -0.53491700    1.45818102
 O          0.33877000   -1.42549706    1.79592896
 C          0.91582203    0.36946800    0.31260300
 O          1.21643901    1.69204998    0.56291300
 C          1.33526504   -0.12041600   -1.06866801
 C          2.87176800   -0.27364299   -1.12003100
 C          3.56311989    0.89671201   -1.79629302
 O          3.25948691    2.15676498   -1.18489206
 O          3.44547200   -0.41769400    0.18665500
 O          0.65110397   -1.31867301   -1.39666402
 O          2.38838696   -2.48397493    0.46723101
 H          3.08923888   -1.16537094   -1.71832597
 H          3.33976293   -1.40111899    1.92593801
 H         -0.27713099    0.26885900    0.31155199
 H          1.02613103    0.61614603   -1.81392002
 C          3.53509212   -3.31017089    0.24235401
 H          0.65201402   -2.03068495    2.47877192
 H          4.64315081    0.73214501   -1.79687703
 H          3.21635389    0.95123798   -2.83000302
 H          1.04079604   -2.03129292   -0.86386597
 H          1.75610602    2.05437303   -0.17115700
 H          3.89179802    2.30226707   -0.47050101
 H          4.21042681   -2.85734105   -0.48766500
 H          3.16363502   -4.25979185   -0.13969600
 H          4.06914091   -3.47220612    1.18361199
 H          1.62470198    0.12128600    2.29945302
 C         -3.97542405   -0.46592900    0.32033101
 C         -2.45684004   -0.79353303    0.25796399
 C         -4.17106485    1.02911901    0.04488900
 C         -3.46454406    1.38683105   -1.26662302
 C         -1.93625104    1.18489695   -1.07275605
 N         -1.74713504    0.49345201    0.20888500
 H         -4.36984396   -0.72177100    1.30589998
 H         -2.11235404   -1.33600402    1.13492501
 H         -5.23481703    1.26203001   -0.02617400
 H         -3.82336211    0.74751598   -2.07570696
 H         -1.39935803    2.13209510   -1.02065504
 H         -4.50270891   -1.06682599   -0.42254800
 H         -2.19034505   -1.34960794   -0.63943100
 C         -3.53055191    1.83198094    1.18338895
 H         -3.65904808    2.42480397   -1.54128301
 H         -1.50626099    0.56562197   -1.85900700
 C         -2.06340790    1.35221195    1.35773504
 H         -4.07131100    1.67888701    2.11872411
 H         -3.55003095    2.89837098    0.95006001
 H         -1.92898500    0.75540799    2.25920892
 H         -1.35694802    2.18218398    1.36431897
