48
wb97x-d4 ma-def2-tzvp(-f) cpcm(dmso) E: -1056.423660699397, G: -1056.0468637000001
 C          2.71620393   -1.20119202    1.05007994
 C          1.43015504   -0.43610400    1.45753896
 O          0.38695100   -1.28402603    1.89623702
 C          0.93367499    0.40349501    0.27439201
 O          1.24606299    1.73705494    0.44174400
 C          1.31213605   -0.16268200   -1.09000695
 C          2.84431791   -0.34289500   -1.17356706
 C          3.53165698    0.78087300   -1.92835104
 O          3.25716901    2.07564592   -1.37917995
 O          3.45181704   -0.42844099    0.12322300
 O          0.60117102   -1.36367702   -1.34180403
 O          2.36354804   -2.45582294    0.53915799
 H          3.03327894   -1.26751602   -1.73020399
 H          3.37865090   -1.32137704    1.91274595
 H         -0.25930500    0.30850101    0.30998099
 H          0.99506098    0.54119802   -1.86301196
 C          3.48395705   -3.32446194    0.34523100
 H          0.70636803   -1.80944300    2.63983107
 H          4.60949898    0.60308498   -1.94670200
 H          3.15956712    0.78406602   -2.95464897
 H          0.99659902   -2.05702090   -0.78819102
 H          1.76601303    2.05385590   -0.32622001
 H          3.90415406    2.24885893   -0.68439901
 H          3.08114290   -4.28515720    0.02804100
 H          4.03090286   -3.44392490    1.28547394
 H          4.15727520   -2.93513894   -0.42252699
 H          1.71539903    0.26883000    2.24339104
 C         -3.94808006   -0.45720100    0.42818499
 C         -2.42787695   -0.77316397    0.35240000
 C         -4.16463614    1.01877201    0.07608600
 C         -3.48519707    1.31226802   -1.26525295
 C         -1.95153201    1.13962102   -1.08749700
 N         -1.73267305    0.51636899    0.22447200
 H         -4.32035589   -0.66273999    1.43394995
 H         -2.06026101   -1.26713204    1.24838603
 H         -5.23188114    1.23727405    0.01220800
 H         -3.84905505    0.62498999   -2.03166294
 H         -1.42620206    2.09461999   -1.09178603
 H         -4.48338699   -1.10275698   -0.27017501
 H         -2.17278004   -1.37134802   -0.52077001
 C         -3.51234102    1.88802302    1.15775704
 H         -3.69763589    2.33116603   -1.59288704
 H         -1.52624905    0.48658901   -1.84853101
 C         -2.03824902    1.43009305    1.33336997
 H         -4.03600311    1.78200495    2.10918403
 H         -3.54512191    2.93983698    0.86666000
 H         -1.88463199    0.88106799    2.26163507
 H         -1.33927703    2.26506305    1.28601396
