48
wb97x-d4 ma-def2-tzvp(-f) cpcm(dmso) E: -1056.432641465007, G: -1056.0559176400002
 C          2.17438293   -1.40891194    0.80794698
 C          1.85561895   -0.28042799    1.78595495
 O          1.06009603   -0.78122199    2.84002399
 C          1.19870996    0.87407100    1.04791498
 O          0.91527498    1.91134906    1.91327000
 C          1.99099505    1.29781795   -0.17637800
 C          2.32436204    0.08851500   -1.05029500
 C          3.28048491    0.42410901   -2.18083000
 O          4.50875807    0.97412598   -1.71879303
 O          2.96634412   -0.91475600   -0.25534201
 O          1.20646095    2.25853610   -0.87005198
 O          0.97210997   -1.95833695    0.36273301
 H          1.40516603   -0.30813301   -1.49157906
 H          2.79154301   -2.16994500    1.29638398
 H          0.11206600    0.47215399    0.63581902
 H          2.92468405    1.74746501    0.17985100
 C          1.13982797   -3.15419507   -0.39965600
 H          1.10837495   -0.15912201    3.57549906
 H          3.45627594   -0.48321101   -2.76857805
 H          2.82182097    1.17069399   -2.83156300
 H          1.79109001    2.90117002   -1.28761196
 H          0.78322703    2.71862698    1.39282894
 H          4.94969177    0.30129299   -1.18594897
 H          1.73192203   -3.88420510    0.16207200
 H          1.62835598   -2.94590902   -1.35535300
 H          0.14163899   -3.55247998   -0.57920200
 H          2.81529593    0.08925500    2.16833305
 C         -3.42240906   -0.67147601    0.99304599
 C         -1.88599706   -0.66701001    1.21379101
 C         -3.74033308    0.13853601   -0.26759601
 C         -2.89190412   -0.39682499   -1.42454004
 C         -1.39627302   -0.11898300   -1.11510599
 N         -1.31009400    0.32317001    0.28720301
 H         -3.92616510   -0.23503900    1.85807800
 H         -1.61442494   -0.37547100    2.22670102
 H         -4.80127716    0.05841400   -0.51023799
 H         -3.05306506   -1.47002399   -1.54496706
 H         -0.98768401    0.67730701   -1.73585701
 H         -3.76544595   -1.70197999    0.88566601
 H         -1.42994905   -1.62744999    0.98653102
 C         -3.36486006    1.60282600   -0.01992900
 H         -3.16201806    0.09410400   -2.36106110
 H         -0.78732902   -1.01403701   -1.22198296
 C         -1.89635301    1.65923297    0.48132801
 H         -4.01817799    2.04846311    0.73198700
 H         -3.46503997    2.17950511   -0.94178498
 H         -1.83531106    1.89303803    1.54355800
 H         -1.30047297    2.37537193   -0.08227300
