48
wb97x-d4 ma-def2-tzvp(-f) cpcm(dmso) E: -1056.424027275471, G: -1056.0468481100002
 C          2.50600696   -1.81155503    0.54639399
 C          1.12858403   -1.32519102    1.06908298
 O          0.05451900   -2.17028403    0.70333898
 C          0.85090703    0.08793200    0.54357702
 O          1.08946204    1.04003501    1.51437998
 C          1.50428498    0.38795200   -0.80120802
 C          3.02948403    0.15859000   -0.69753200
 C          3.81450796    1.44565201   -0.52275300
 O          3.39166307    2.21001291    0.61326998
 O          3.37289000   -0.70564502    0.39487699
 O          0.90500998   -0.38223299   -1.83040202
 O          2.32241607   -2.51334405   -0.65044200
 H          3.35598111   -0.29336399   -1.64056301
 H          2.99077010   -2.45523906    1.28697097
 H         -0.32145399    0.10277200    0.32108501
 H          1.31329203    1.43250799   -1.05887103
 C          3.50366402   -3.18735290   -1.09641099
 H          0.25114200   -3.06778789    0.99789500
 H          4.87947416    1.21528602   -0.44276500
 H          3.65538192    2.06850505   -1.40499997
 H          1.21246696   -1.29749095   -1.72598302
 H          1.74576199    1.69059801    1.18681896
 H          3.89575911    1.91090596    1.37984896
 H          3.86183906   -3.86739492   -0.31738201
 H          4.29171419   -2.47405291   -1.34981096
 H          3.22279310   -3.75508690   -1.98214197
 H          1.20901203   -1.24682295    2.15696192
 C         -3.84077501    0.56528199    1.46213496
 C         -2.30985594    0.31678799    1.55954301
 C         -4.15308619    1.12926495    0.07121500
 C         -3.85176110    0.05243900   -0.97820002
 C         -2.40725493   -0.47390199   -0.74934500
 N         -1.76768303    0.44748399    0.20071700
 H         -4.14123678    1.26691306    2.24192095
 H         -1.81155705    1.05583298    2.18621492
 H         -5.20102501    1.42811298    0.01366400
 H         -4.55310583   -0.77912498   -0.89156598
 H         -1.81704497   -0.48002100   -1.66378295
 H         -4.38015223   -0.37088701    1.62007797
 H         -2.07592201   -0.68353099    1.92109096
 C         -3.24575090    2.33754110   -0.18643001
 H         -3.94194698    0.47011799   -1.98306894
 H         -2.39280796   -1.46630502   -0.30320200
 C         -1.77834296    1.83638799   -0.27408499
 H         -3.34532499    3.06441689    0.62220699
 H         -3.51156306    2.83091307   -1.12261903
 H         -1.10672700    2.41785192    0.35789299
 H         -1.40441203    1.83652198   -1.29761600
