48
wb97x-d4 ma-def2-tzvp(-f) cpcm(dmso) E: -1056.422915348434, G: -1056.04677545
 C          2.33799291   -2.11692309    0.27211401
 C          0.85497397   -1.68501997    0.49895301
 O         -0.03769800   -2.26087499   -0.42881200
 C          0.77188301   -0.15268600    0.53032303
 O          0.96346998    0.33613399    1.80619097
 C          1.63614094    0.50507200   -0.52900499
 C          3.10663295    0.07574900   -0.31096199
 C          3.93729401    1.19096398    0.28868401
 O          3.33053493    1.63958395    1.50857604
 O          3.21953893   -1.05151498    0.56367201
 O          1.11030304    0.07880400   -1.78037298
 O          2.47954297   -2.57700706   -1.03716302
 H          3.53461504   -0.17225800   -1.28839397
 H          2.61621094   -2.90219808    0.98176700
 H         -0.35145599    0.07678400    0.22499800
 H          1.55918205    1.59417903   -0.44316500
 C          3.74328995   -3.19299698   -1.28331995
 H          0.32633999   -2.10690999   -1.31106806
 H          4.94899082    0.82680601    0.48884201
 H          3.98844910    2.01069903   -0.43281901
 H          1.65394497    0.45088601   -2.48464799
 H          1.68481600    1.00039005    1.80429697
 H          3.57596207    2.55848789    1.66250801
 H          3.92883110   -3.98869705   -0.55357999
 H          4.55439901   -2.46135998   -1.23541498
 H          3.69489789   -3.61837506   -2.28499508
 H          0.55083698   -2.03664303    1.48560798
 C         -3.27217793    2.39644194    0.46997601
 C         -1.81414104    1.87718904    0.61767900
 C         -4.18197298    1.20383799    0.15528999
 C         -3.96063399    0.12100600    1.21804798
 C         -2.50802112   -0.41551200    1.07890606
 N         -1.80536497    0.48479301    0.15638000
 H         -3.32369709    3.13338089   -0.33398601
 H         -1.11264098    2.44287705    0.00480900
 H         -5.22651005    1.51989996    0.15408900
 H         -4.11230183    0.53536099    2.21672106
 H         -2.47456789   -1.41577399    0.65043497
 H         -3.57729912    2.88206100    1.39812303
 H         -1.47779298    1.88461602    1.65384102
 C         -3.80124211    0.63595498   -1.21675098
 H         -4.66111708   -0.70456201    1.08212495
 H         -1.97639406   -0.40981400    2.03040600
 C         -2.27319193    0.34654099   -1.22860599
 H         -4.03762722    1.34765995   -2.00946212
 H         -4.35511589   -0.28501901   -1.41025102
 H         -1.72192001    1.06161296   -1.83696401
 H         -2.04618096   -0.66363102   -1.56362104
