48
wb97x-d4 ma-def2-tzvp(-f) cpcm(dmso) E: -1056.42285786336, G: -1056.04660087
 C          2.74346399   -1.01770401    1.24257302
 C          1.30009198   -0.45447201    1.42950106
 O          0.36273199   -1.44492698    1.78985298
 C          0.89096397    0.32321501    0.17053699
 O          1.24734998    1.65283298    0.25937700
 C          1.32973504   -0.35993701   -1.11123097
 C          2.86916304   -0.51403701   -1.09462702
 C          3.54640698    0.47673100   -2.01804996
 O          3.13352489    1.80853105   -1.68153501
 O          3.41954207   -0.32282501    0.21311700
 O          0.64323699   -1.60561204   -1.13733006
 O          2.66672301   -2.38801503    0.99432999
 H          3.11420012   -1.52089703   -1.45062995
 H          3.34255195   -0.82873797    2.13864708
 H         -0.29495201    0.27162501    0.17499000
 H          1.03439403    0.24843501   -1.97285700
 C          3.93538404   -3.03979993    1.04575098
 H          0.46604899   -2.17755699    1.16759801
 H          4.63184786    0.38731399   -1.91809499
 H          3.26153708    0.24069200   -3.04673290
 H          0.94464302   -2.10749507   -1.90320206
 H          1.79144204    1.90406001   -0.51720297
 H          3.19784808    2.36669302   -2.46430993
 H          3.74443603   -4.10679817    0.93809998
 H          4.42402220   -2.84807110    2.00718403
 H          4.58588886   -2.70113301    0.23467200
 H          1.32536995    0.26565099    2.24834299
 C         -3.99573803   -0.32984999   -0.28328201
 C         -2.49617195   -0.70558602   -0.11747000
 C         -4.19939280    1.10553205    0.21703400
 C         -3.44522810    2.06365609   -0.71323800
 C         -1.97798705    1.56695998   -0.84092802
 N         -1.78104997    0.54027301    0.18798500
 H         -4.60499191   -1.03046703    0.29001200
 H         -2.33022404   -1.39126503    0.71161097
 H         -5.26218319    1.35278702    0.22819600
 H         -3.90269804    2.08526492   -1.70361102
 H         -1.25625098    2.36546707   -0.66767597
 H         -4.28574800   -0.40730199   -1.33321095
 H         -2.07133508   -1.12872803   -1.02591801
 C         -3.61320400    1.22735798    1.62818599
 H         -3.46335697    3.07705212   -0.30736300
 H         -1.78256905    1.10487998   -1.80847001
 C         -2.07350612    1.03790104    1.53808796
 H         -4.04369211    0.46698201    2.28291798
 H         -3.83048892    2.20758796    2.05538893
 H         -1.70571005    0.30653799    2.25601292
 H         -1.53607094    1.97719395    1.66696501
