48
wb97x-d4 ma-def2-tzvp(-f) cpcm(dmso) E: -1056.423216358975, G: -1056.04651452
 C          2.45669889   -1.75513399    0.73824799
 C          0.96108598   -1.44960201    0.48758599
 O          0.53796202   -1.82487404   -0.81497997
 C          0.76183099    0.05000500    0.58277899
 O          0.94840097    0.45541900    1.88962698
 C          1.56842601    0.80330300   -0.48605901
 C          2.92776394    0.09343500   -0.69562000
 C          4.07549095    1.06907499   -0.92548299
 O          3.82704496    1.95223904   -2.01033401
 O          3.28928709   -0.65100598    0.46408901
 O          0.84285200    0.90063000   -1.69932199
 O          2.77264690   -2.87028503   -0.04429300
 H          2.83445311   -0.57587802   -1.55910599
 H          2.62046790   -1.97309899    1.79724002
 H         -0.37834400    0.24945800    0.28462201
 H          1.72930896    1.82910597   -0.14366899
 C          4.04556894   -3.44258809    0.26426899
 H          1.03467405   -2.61883807   -1.05928504
 H          4.19462585    1.69206202   -0.03563200
 H          4.99944592    0.50141501   -1.07829702
 H          0.67551100   -0.00502600   -1.99822402
 H          1.06937599    1.41420698    1.92532396
 H          3.80633402    1.43580604   -2.82472205
 H          4.08598614   -3.72632504    1.32095504
 H          4.85078478   -2.73885608    0.04180300
 H          4.15054893   -4.32909679   -0.35942799
 H          0.36874500   -1.96618700    1.24896395
 C         -3.89287305    0.32038200    1.50057495
 C         -2.41587090   -0.14413901    1.37219906
 C         -4.26893377    1.09070599    0.22938000
 C         -3.92355609    0.22849800   -0.99051702
 C         -2.37981105    0.06260700   -1.05938196
 N         -1.84263396    0.55626100    0.21631400
 H         -4.00893021    0.95900100    2.37837195
 H         -1.82514799    0.11155000    2.25206995
 H         -5.33453178    1.32551205    0.23405200
 H         -4.40061092   -0.75018901   -0.90751398
 H         -1.93616199    0.65753198   -1.85565495
 H         -4.53243494   -0.55432898    1.62865996
 H         -2.33578801   -1.21380603    1.17990398
 C         -3.44476390    2.38201404    0.17471699
 H         -4.27326012    0.70025802   -1.91022503
 H         -2.07952595   -0.97761601   -1.17457795
 C         -1.94312096    2.01611304    0.33918500
 H         -3.73800707    3.06314611    0.97500902
 H         -3.60025501    2.88939595   -0.77944601
 H         -1.55875695    2.29280710    1.32093501
 H         -1.32200503    2.46492910   -0.43510699
