48
wb97x-d4 ma-def2-tzvp(-f) cpcm(dmso) E: -1056.422947173241, G: -1056.04645673
 C          2.68561196   -0.97221798    1.20074797
 C          1.16193998   -0.71079499    1.13682199
 O          0.44785100   -1.76282001    0.51653302
 C          0.89340401    0.54532701    0.31990299
 O          1.21134698    1.71681094    0.98447901
 C          1.52888501    0.54413199   -1.07261002
 C          2.65181088   -0.50344503   -1.12846005
 C          3.64010596   -0.21584000   -2.24463201
 O          2.90478110   -0.21871200   -3.47152591
 O          3.38400412   -0.44920301    0.09181600
 O          0.52745700    0.29184499   -2.04569793
 O          2.84164810   -2.35622311    1.32064497
 H          2.21178794   -1.49438000   -1.27460098
 H          3.11418509   -0.46534300    2.07056308
 H         -0.29207999    0.51965803    0.12703900
 H          1.96678603    1.53812599   -1.22177303
 C          4.16468477   -2.75567389    1.68400598
 H          0.87103498   -2.59040689    0.78449798
 H          4.10541487    0.76080400   -2.07453990
 H          4.41812611   -0.98562098   -2.25413394
 H          0.99236798    0.21463400   -2.89269590
 H          0.96988201    1.64545095    1.91926205
 H          3.44886088    0.18322299   -4.15761614
 H          4.46687698   -2.26363301    2.61427307
 H          4.87523699   -2.51101089    0.89116502
 H          4.13712406   -3.83439803    1.83139598
 H          0.80841202   -0.56368297    2.16501594
 C         -3.89246011   -0.29627401   -0.59038198
 C         -2.35196400   -0.34067601   -0.78661197
 C         -4.24402285    0.93748498    0.24924999
 C         -3.58910990    2.17060208   -0.38431299
 C         -2.04636598    2.02591991   -0.26811999
 N         -1.77559197    0.64202100    0.14390799
 H         -4.23179197   -1.20368505   -0.08654900
 H         -1.93083096   -1.31594598   -0.55066597
 H         -5.32642794    1.06826103    0.29295999
 H         -3.87589097    2.25286889   -1.43460095
 H         -1.62751698    2.68542504    0.49166501
 H         -4.37474394   -0.25031400   -1.56824195
 H         -2.05335999   -0.05253300   -1.79167795
 C         -3.67644310    0.74918300    1.66015506
 H         -3.90331292    3.08193302    0.12698500
 H         -1.54349601    2.20091891   -1.21828699
 C         -2.17138791    0.38773501    1.53641605
 H         -4.19479799   -0.05571600    2.18364310
 H         -3.79428601    1.66576600    2.24157190
 H         -1.98159099   -0.66448098    1.74534202
 H         -1.55215597    1.00490105    2.18767810
