48
wb97x-d4 ma-def2-tzvp(-f) cpcm(dmso) E: -1056.423235425103, G: -1056.04639023
 C          2.69746304   -1.15002203    1.15765703
 C          1.15521598   -1.05019605    1.05627000
 O          0.59803802   -2.06389093    0.23228800
 C          0.81347799    0.27195299    0.39838800
 O          1.14774501    1.30928302    1.24621403
 C          1.37070000    0.35691801   -1.03089702
 C          2.76392007   -0.31698099   -1.07597494
 C          3.74751306    0.42858201   -1.96952701
 O          3.25401807    0.59770101   -3.29135394
 O          3.35830903   -0.33247599    0.21889500
 O          0.47977999   -0.23286700   -1.96207798
 O          3.01974511   -2.50257707    1.00763702
 H          2.63480902   -1.34224796   -1.44234097
 H          3.03137302   -0.78316897    2.13230801
 H         -0.37579000    0.28205699    0.24937201
 H          1.45495200    1.41008306   -1.31312394
 C          4.38279009   -2.80438089    1.31412005
 H          1.14848804   -2.85289407    0.33853400
 H          3.90530205    1.43090606   -1.56370103
 H          4.70558691   -0.10169100   -1.96681297
 H          0.36401501   -1.15529299   -1.68980896
 H          1.14404202    2.14699101    0.76210898
 H          3.19187188   -0.27063301   -3.70666003
 H          4.62150908   -2.48417902    2.33359003
 H          5.05600214   -2.31305408    0.60814703
 H          4.49008894   -3.88499403    1.23296201
 H          0.73496300   -1.09935403    2.06529188
 C         -4.07190895   -0.32037601   -0.11612100
 C         -2.55188704   -0.61712599   -0.25314200
 C         -4.25568295    1.16338301    0.22136000
 C         -3.51193690    2.00521207   -0.82058698
 C         -1.99072301    1.72153902   -0.68993700
 N         -1.83939600    0.57810801    0.22077601
 H         -4.50232220   -0.94257998    0.67103302
 H         -2.23910189   -1.46291304    0.35722300
 H         -5.31662178    1.41883004    0.22204800
 H         -3.85180902    1.74827302   -1.82582605
 H         -1.45257998    2.56286812   -0.25298601
 H         -4.57058001   -0.56709599   -1.05490196
 H         -2.25657201   -0.78846300   -1.28686202
 C         -3.64830208    1.43567395    1.60254097
 H         -3.69538689    3.06883907   -0.66064298
 H         -1.53635001    1.45478106   -1.64237297
 C         -2.18184805    0.92124897    1.60618305
 H         -4.21098518    0.91891700    2.38156199
 H         -3.66865897    2.50515389    1.82065594
 H         -2.06241012    0.02069300    2.20818210
 H         -1.48086905    1.68145704    1.95031297
