48
wb97x-d4 ma-def2-tzvp(-f) cpcm(dmso) E: -1056.423942176133, G: -1056.04638088
 C          2.48519993   -1.85832596    0.47755599
 C          1.10082102   -1.39463603    1.00067699
 O          0.03063700   -2.21346593    0.57058501
 C          0.84047198    0.04896800    0.55471200
 O          1.05628800    0.93619502    1.58962905
 C          1.53160095    0.42758000   -0.75103402
 C          3.05290389    0.18489701   -0.62055200
 C          3.83548903    1.45437706   -0.33849901
 O          3.38222790    2.14525008    0.83219999
 O          3.36439109   -0.75359398    0.41919100
 O          0.95657599   -0.27569500   -1.83981597
 O          2.32530499   -2.47888494   -0.76716000
 H          3.40440011   -0.20284800   -1.58307898
 H          2.94676709   -2.55411196    1.18505597
 H         -0.32879499    0.08608700    0.30080399
 H          1.35326302    1.48701298   -0.94972497
 C          3.51417589   -3.12688708   -1.23117304
 H          0.21464901   -3.12489796    0.82836002
 H          4.89712906    1.21484101   -0.24310800
 H          3.70357299    2.13433290   -1.18235803
 H          1.26223099   -1.19601703   -1.78498995
 H          1.72249401    1.60377204    1.32116795
 H          3.86419511    1.79621994    1.59183896
 H          4.30806303   -2.40147805   -1.42512703
 H          3.24968505   -3.63826895   -2.15542006
 H          3.85667300   -3.85444307   -0.48880500
 H          1.16314697   -1.37884903    2.09242296
 C         -3.77446890    0.78454298    1.51362002
 C         -2.33502102    0.20062800    1.51167202
 C         -4.15567493    1.13823605    0.07169800
 C         -3.91720200   -0.08741100   -0.81807601
 C         -2.39229488   -0.38482100   -0.85941601
 N         -1.76855397    0.44788599    0.17885301
 H         -3.81753898    1.67434800    2.14495492
 H         -1.69354200    0.68522000    2.24774098
 H         -5.20322084    1.44005704    0.02284100
 H         -4.45402479   -0.95091897   -0.41996899
 H         -1.94374394   -0.11087900   -1.81286204
 H         -4.46054983    0.04241100    1.92516196
 H         -2.32587790   -0.87568498    1.67621505
 C         -3.25540709    2.28264999   -0.40537500
 H         -4.27400303    0.09652800   -1.83286905
 H         -2.16555905   -1.42586505   -0.63942897
 C         -1.77443802    1.87346995   -0.17343000
 H         -3.46700501    3.19803596    0.14952700
 H         -3.42378497    2.48044300   -1.46578598
 H         -1.32066596    2.42014503    0.65273398
 H         -1.17097998    2.00384903   -1.07116199
