48
wb97x-d4 ma-def2-tzvp(-f) cpcm(dmso) E: -1056.432669598154, G: -1056.0558448600002
 C          2.35624409   -0.41926399    1.26753104
 C          1.97938001    1.05975199    1.26485896
 O          1.30550206    1.37685597    2.46500802
 C          1.16469598    1.38815796    0.02444400
 O          0.83146697    2.72706890   -0.00346800
 C          1.83305597    0.89723098   -1.24787700
 C          2.23932505   -0.57096797   -1.11547804
 C          3.08348298   -1.05379701   -2.28118491
 O          4.26832914   -0.28599599   -2.45959091
 O          3.02889800   -0.74466699    0.06587800
 O          0.91319299    1.10343003   -2.31167197
 O          1.19465601   -1.17019999    1.44648302
 H          1.34177697   -1.19532704   -1.06634200
 H          3.07742310   -0.62459600    2.06528091
 H          0.09796500    0.77858901    0.11667200
 H          2.73418903    1.50295496   -1.39681399
 C          1.44481802   -2.55791712    1.67199099
 H          1.34252799    2.33281493    2.58767509
 H          3.32351089   -2.11068010   -2.12390304
 H          2.50655198   -0.96672100   -3.20361090
 H          1.40174997    1.32045102   -3.11379695
 H          0.58979797    2.96456695   -0.91189802
 H          4.82115507   -0.41229099   -1.67903602
 H          0.48145401   -3.01762199    1.89070499
 H          2.11776710   -2.68918204    2.52569509
 H          1.88178003   -3.02761412    0.78675801
 H          2.91715193    1.62409902    1.18848598
 C         -2.93062592   -1.37381196   -0.35071900
 C         -1.46127903   -0.91030902   -0.53484303
 C         -3.75035191   -0.19811200    0.18965100
 C         -3.51661801    1.02116203   -0.70812500
 C         -2.03425193    1.46019697   -0.56796598
 N         -1.31991100    0.38854301    0.14560600
 H         -2.97211194   -2.21300292    0.34685999
 H         -0.75605798   -1.60482502   -0.08415800
 H         -4.81092596   -0.45433199    0.20783800
 H         -3.73359394    0.77114898   -1.74874997
 H         -1.93239295    2.37069297    0.02116700
 H         -3.32235289   -1.71135199   -1.31183505
 H         -1.20629001   -0.76057100   -1.58325195
 C         -3.25978303    0.13248400    1.60257101
 H         -4.16493177    1.84853601   -0.41521400
 H         -1.55585897    1.59993696   -1.53636801
 C         -1.71971500    0.31732500    1.56235898
 H         -3.50437498   -0.67476499    2.29515290
 H         -3.73804688    1.04553902    1.96337402
 H         -1.18883801   -0.52126002    2.00669098
 H         -1.39954495    1.23764396    2.04716897
