48
wb97x-d4 ma-def2-tzvp(-f) cpcm(dmso) E: -1056.423119780973, G: -1056.04630992
 C          2.36011100   -2.07680988    0.01972500
 C          0.86240900   -1.70390904    0.25112599
 O          0.01090200   -2.16974998   -0.77211100
 C          0.74387503   -0.19120499    0.47793099
 O          0.86761898    0.13336600    1.81327295
 C          1.63518906    0.61939901   -0.44135001
 C          3.10588408    0.18828399   -0.22182700
 C          3.88544703    1.21706998    0.57750100
 O          3.28665304    1.47890794    1.85411596
 O          3.20954299   -1.04891002    0.48881501
 O          1.16617703    0.36582500   -1.76020396
 O          2.55507708   -2.34535098   -1.33471704
 H          3.58045292    0.09268600   -1.20531595
 H          2.63057995   -2.94988489    0.62163699
 H         -0.37288901    0.05984300    0.15635300
 H          1.52955401    1.68479002   -0.20692900
 C          3.83976197   -2.89970803   -1.61699295
 H          0.39323300   -1.88966596   -1.61473203
 H          4.91567993    0.87910497    0.70982301
 H          3.89279890    2.15870404    0.02514500
 H          1.74773395    0.81403702   -2.38544011
 H          1.56718194    0.80971903    1.92494297
 H          3.66732788    0.86456800    2.49327493
 H          4.63341188   -2.17159200   -1.42877603
 H          3.83849597   -3.17294598   -2.67151499
 H          4.01297808   -3.79154801   -1.00501001
 H          0.53523600   -2.18641210    1.17303205
 C         -3.31072402    2.23435211    0.87279099
 C         -1.82625103    1.84389400    0.63070601
 C         -4.20273113    1.15439999    0.24978399
 C         -3.99946308   -0.15628400    1.01746798
 C         -2.47797203   -0.46794900    1.06059599
 N         -1.82064795    0.46314800    0.13487700
 H         -3.50389910    3.20718908    0.41786799
 H         -1.35458398    2.46778297   -0.12820400
 H         -5.24937296    1.45950997    0.29723701
 H         -4.37873507   -0.07158300    2.03704810
 H         -2.25608110   -1.48270297    0.73298001
 H         -3.50640798    2.31425405    1.94392097
 H         -1.23642695    1.87843096    1.54692101
 C         -3.78077888    0.94490302   -1.20981503
 H         -4.53185415   -0.97088999    0.52248001
 H         -2.05304790   -0.30292600    2.05021310
 C         -2.34173894    0.35541299   -1.23367405
 H         -3.80228400    1.89507699   -1.74728596
 H         -4.45875883    0.25368899   -1.71319902
 H         -1.67823994    0.90947902   -1.89567697
 H         -2.33042502   -0.69779903   -1.50881302
