48
wb97x-d4 ma-def2-tzvp(-f) cpcm(dmso) E: -1056.422938448224, G: -1056.0462589400001
 C          2.46237993   -1.77801001    0.73613602
 C          0.97636002   -1.32930398    0.90978903
 O          0.05046300   -2.24460506    0.36771500
 C          0.80622798    0.08628300    0.34232301
 O          1.07376599    1.05133700    1.29037094
 C          1.53791404    0.28249499   -0.97053200
 C          3.04577088    0.01913800   -0.74093598
 C          3.84862304    1.30686200   -0.70159101
 O          3.35578394    2.22293091    0.28797901
 O          3.29715991   -0.66364503    0.48942199
 O          0.94576597   -0.63101602   -1.88688505
 O          2.53421307   -2.72767496   -0.28231099
 H          3.41449690   -0.58115000   -1.58081305
 H          2.84188199   -2.19819093    1.67273605
 H         -0.35547501    0.15512501    0.09543900
 H          1.39401996    1.31008601   -1.32271302
 C          3.81086993   -3.36033797   -0.36756900
 H          0.30800900   -2.40281701   -0.55072701
 H          4.89957714    1.07974005   -0.51118302
 H          3.76541901    1.80080295   -1.67186201
 H          1.43254697   -0.59319401   -2.71844196
 H          1.74381804    1.67819095    0.94443101
 H          3.87546992    2.10530496    1.09186602
 H          4.58374882   -2.64893198   -0.67051798
 H          3.72285891   -4.14474678   -1.11828804
 H          4.08263206   -3.80275393    0.59706300
 H          0.76728803   -1.26985896    1.97867596
 C         -3.82483602    0.27641901    1.48470104
 C         -2.29054904    0.03422700    1.44103205
 C         -4.21438885    1.13345003    0.27527401
 C         -3.96007204    0.32679999   -1.00395095
 C         -2.49548602   -0.19588500   -0.98069501
 N         -1.81942797    0.49123701    0.12721001
 H         -4.08385181    0.78093898    2.41696811
 H         -1.76186299    0.61055899    2.19988894
 H         -5.26668119    1.41551602    0.33790699
 H         -4.64231205   -0.52250803   -1.06707001
 H         -1.96005201    0.03291200   -1.90099001
 H         -4.35219622   -0.67917901    1.45660996
 H         -2.03681493   -1.01972604    1.54237902
 C         -3.33291602    2.38756204    0.25586700
 H         -4.11657190    0.95534700   -1.88295400
 H         -2.44050288   -1.26569498   -0.78652900
 C         -1.86483395    1.95131195   -0.00627300
 H         -3.40243697    2.91194510    1.21094501
 H         -3.64845610    3.07264805   -0.53261000
 H         -1.17162001    2.37992811    0.71757197
 H         -1.53571904    2.20013309   -1.01485801
