48
wb97x-d4 ma-def2-tzvp(-f) cpcm(dmso) E: -1056.423449198763, G: -1056.04625441
 C          2.45621490   -1.79517996   -0.05548400
 C          0.97222501   -1.43458498    0.08837300
 O          0.23431399   -1.81330204   -1.06548405
 C          0.83486903    0.07416300    0.24387600
 O          1.18239605    0.44800100    1.52870500
 C          1.56290102    0.84315300   -0.85510099
 C          3.03147602    0.39489600   -0.89474499
 C          3.87988591    0.86437899    0.29939100
 O          3.35588694    2.10979390    0.77679402
 O          3.10480809   -1.02321100   -1.05994594
 O          0.94132000    0.65252399   -2.11315203
 O          2.51003599   -3.12597990   -0.44487199
 H          3.45133400    0.80254298   -1.81562400
 H          2.95393610   -1.65886700    0.91192597
 H         -0.32346699    0.29840899    0.08153500
 H          1.51740205    1.91147602   -0.64405400
 C          3.81080389   -3.71144104   -0.33497101
 H          0.48794299   -2.71912694   -1.28953505
 H          3.86093712    0.12576100    1.10267305
 H          4.91533422    0.98664498   -0.02751200
 H          0.76747799   -0.29602900   -2.21628499
 H          1.66257203    1.29585803    1.50604498
 H          3.95815492    2.45087910    1.44854701
 H          3.69679403   -4.76846218   -0.57109898
 H          4.19008112   -3.60059094    0.68599302
 H          4.50608015   -3.24976707   -1.03947496
 H          0.58519000   -1.93327904    0.98342299
 C         -3.39481091    2.33735800    0.67272103
 C         -1.89438605    1.93264306    0.71014702
 C         -4.22272110    1.09749198    0.31728801
 C         -3.84767008   -0.03806100    1.27680194
 C         -2.37135696   -0.44246599    1.00620401
 N         -1.79969203    0.58787799    0.12981801
 H         -3.55021310    3.12185693   -0.07051700
 H         -1.27244306    2.60311294    0.11733400
 H         -5.28743982    1.32189095    0.39931899
 H         -3.96163988    0.28789899    2.31254697
 H         -2.29360795   -1.39697194    0.48701599
 H         -3.68427610    2.72992897    1.64875698
 H         -1.50769198    1.88202405    1.72762704
 C         -3.88212490    0.66707999   -1.11381996
 H         -4.48977995   -0.90637797    1.12072694
 H         -1.78103197   -0.47687900    1.92200804
 C         -2.33875895    0.52563000   -1.23592997
 H         -4.23072290    1.40829599   -1.83483100
 H         -4.36254597   -0.28569600   -1.34560096
 H         -1.89200902    1.34007800   -1.80335498
 H         -2.04198694   -0.42537299   -1.67419899
