48
wb97x-d4 ma-def2-tzvp(-f) cpcm(dmso) E: -1056.423024027579, G: -1056.0461525
 C          2.36101508   -2.06700301    0.06479200
 C          0.91995603   -1.60418296   -0.26159200
 O          0.76036501   -1.23279905   -1.62266302
 C          0.63391399   -0.36320099    0.55915099
 O          0.57982701   -0.70278400    1.89630604
 C          1.57364202    0.79393899    0.19028500
 C          2.98299098    0.23031101   -0.11380700
 C          4.10098982    1.13256001    0.39449000
 O          4.00279522    2.45554209   -0.11441400
 O          3.17463112   -1.01953804    0.54275900
 O          1.06376195    1.53297102   -0.90587199
 O          2.86475801   -2.64484191   -1.10473895
 H          3.07449889    0.10437700   -1.19897103
 H          2.34225202   -2.79997897    0.87604302
 H         -0.45298699    0.02550400    0.22809400
 H          1.62212503    1.48938704    1.03280401
 C          4.09809589   -3.34256196   -0.91943300
 H          1.33083701   -1.81328499   -2.14634395
 H          4.02862310    1.20869994    1.48216403
 H          5.06544781    0.67970502    0.14138900
 H          0.98813099    0.91488302   -1.64765000
 H          0.66607201    0.08980600    2.44360805
 H          4.16406012    2.42846894   -1.06515300
 H          4.32697010   -3.83008099   -1.86604297
 H          3.99317002   -4.09607983   -0.13186599
 H          4.90048409   -2.64838696   -0.65987700
 H          0.22816300   -2.40990400    0.00241600
 C         -3.71605802    1.23292303   -1.22575402
 C         -2.28401208    0.62796599   -1.23774803
 C         -4.26395082    1.17048001    0.20496900
 C         -3.42791390    2.09655595    1.09496403
 C         -1.92880905    1.73818398    0.90571302
 N         -1.87799394    0.46885401    0.16614500
 H         -4.35018110    0.66542900   -1.90868795
 H         -2.25548005   -0.35633400   -1.70308101
 H         -5.31044912    1.47925198    0.21971899
 H         -3.58230805    3.14164090    0.82181799
 H         -1.42025304    1.60086501    1.86035895
 H         -3.68409991    2.26811004   -1.57140899
 H         -1.56605804    1.28233600   -1.72833705
 C         -4.13010883   -0.26451999    0.72532302
 H         -3.71293306    1.97204900    2.14153504
 H         -1.39551198    2.48200488    0.31600299
 C         -2.61900997   -0.60504001    0.84276098
 H         -4.61623812   -0.96239901    0.04071900
 H         -4.59886312   -0.36706501    1.70528102
 H         -2.37040997   -1.54725301    0.35474199
 H         -2.28395009   -0.63556200    1.87908804
