48
wb97x-d4 ma-def2-tzvp(-f) cpcm(dmso) E: -1056.423266968032, G: -1056.04611356
 C          2.53058100   -1.59780300    0.87456101
 C          1.02342606   -1.26776695    0.76364601
 O          0.42589900   -1.80106795   -0.40241200
 C          0.82998502    0.23957400    0.70381802
 O          0.99702901    0.87113100    1.92318797
 C          1.66311300    0.94695097   -0.36783499
 C          2.79338002    0.02262600   -0.84356302
 C          3.91228700    0.80129403   -1.52104700
 O          3.41013288    1.53649294   -2.64018106
 O          3.36026502   -0.61229199    0.29876801
 O          0.81823099    1.33985901   -1.43813205
 O          2.70147991   -2.84929609    0.27450201
 H          2.38895392   -0.71837801   -1.54011095
 H          2.82414699   -1.63809705    1.92796004
 H         -0.31387600    0.36916500    0.35409701
 H          2.10891294    1.82762098    0.10967300
 C          3.96905804   -3.45007110    0.54806602
 H          0.82781100   -2.66712189   -0.55795699
 H          4.32521200    1.53110504   -0.82064098
 H          4.70889282    0.11741400   -1.82598996
 H          1.40380001    1.69569802   -2.12394905
 H          0.62492400    0.32752001    2.63245606
 H          3.35828900    0.93974203   -3.39657402
 H          4.78034782   -2.85359597    0.12438000
 H          3.95649910   -4.43420219    0.08184500
 H          4.11346483   -3.55502391    1.62828505
 H          0.53191298   -1.66629803    1.65973604
 C         -3.92929792   -0.15774000    1.09596097
 C         -2.38788795   -0.28299499    1.24552405
 C         -4.23268986    0.98859298    0.12507600
 C         -3.70581794    0.61379200   -1.26446402
 C         -2.21210790    0.20277201   -1.13813400
 N         -1.78071296    0.57434702    0.21805599
 H         -4.37074614    0.03683700    2.07469893
 H         -2.03994012    0.06748500    2.21756792
 H         -5.30799484    1.16987205    0.08391200
 H         -4.27278519   -0.22068900   -1.68054402
 H         -1.57543004    0.72426599   -1.84847498
 H         -4.34228706   -1.09415102    0.71587002
 H         -2.04311109   -1.30341399    1.08162403
 C         -3.50420094    2.24886489    0.60531199
 H         -3.80188107    1.46289396   -1.94428301
 H         -2.06851792   -0.87096500   -1.24342000
 C         -1.97422397    2.00351000    0.49714601
 H         -3.77534699    2.47181606    1.63912797
 H         -3.77289605    3.10893106   -0.01020300
 H         -1.45376098    2.24057603    1.42524302
 H         -1.52251697    2.56022191   -0.32218200
