48
wb97x-d4 ma-def2-tzvp(-f) cpcm(dmso) E: -1056.42327456296, G: -1056.0459789200002
 C          2.44554901   -1.91903400    0.48051500
 C          1.14830196   -1.43494201    1.14897597
 O          0.06140400   -2.29343796    0.86597502
 C          0.87649202    0.03667600    0.79213899
 O          1.07880604    0.81624699    1.92073298
 C          1.59653997    0.54978198   -0.45407701
 C          3.10064912    0.21951000   -0.37426201
 C          3.92998600    1.38347197    0.16043000
 O          3.85517192    2.51263094   -0.69957697
 O          3.40003800   -0.88924903    0.48535001
 O          0.97732902    0.04895400   -1.62800002
 O          2.12761497   -2.35815001   -0.81630099
 H          3.43475199   -0.01210100   -1.39252996
 H          2.88888597   -2.73978591    1.05121398
 H         -0.28285900    0.08084400    0.49567899
 H          1.49130201    1.63625300   -0.50548100
 C          3.18732190   -3.08203006   -1.45427096
 H          0.17422600   -2.62561989   -0.03544300
 H          3.55046606    1.69919598    1.13400602
 H          4.96371603    1.04733896    0.28725699
 H          1.24147201   -0.87988502   -1.72204995
 H          1.06694305    1.75484598    1.68464601
 H          4.34972811    2.31612706   -1.50435495
 H          4.05106020   -2.43434310   -1.62116301
 H          2.79685307   -3.43050194   -2.40889192
 H          3.47882700   -3.93612695   -0.83630598
 H          1.30882299   -1.46378601    2.22789001
 C         -3.81943607    0.72608602    1.47061205
 C         -2.36573696    0.18711799    1.57477999
 C         -4.11895895    1.03910995    0.00019300
 C         -3.80274796   -0.19957900   -0.84507602
 C         -2.27430606   -0.47647601   -0.77454299
 N         -1.72877300    0.40342799    0.26901200
 H         -3.92836595    1.62652302    2.07834411
 H         -1.78415096    0.71842098    2.32831192
 H         -5.16776609    1.31662297   -0.11763700
 H         -4.35390186   -1.06315506   -0.46740800
 H         -1.76538801   -0.23555900   -1.70576203
 H         -4.50859499   -0.02828500    1.85380399
 H         -2.33440995   -0.88157099    1.78148603
 C         -3.21619010    2.19157505   -0.45043099
 H         -4.09058809   -0.04038400   -1.88559306
 H         -2.05649304   -1.50573504   -0.49802300
 C         -1.74218202    1.81567705   -0.13456300
 H         -3.47409010    3.11247706    0.07499700
 H         -3.33189392    2.36661792   -1.52175701
 H         -1.33822596    2.39985704    0.69273001
 H         -1.09719396    1.92434895   -1.00557899
