27
wb97x-d4 ma-def2-tzvp(-f) cpcm(dmso) E: -727.02568270641, G: -726.8348509
 C         -1.20438099    0.14943400    0.23337799
 C         -0.84832799    1.54923797   -0.25679201
 O         -0.37016600   -0.78903198   -0.44849601
 C         -2.65364504   -0.21583200   -0.03008500
 H         -1.01087999    0.09813900    1.31280696
 C          0.99723399   -0.66380000   -0.06443200
 C          1.52679503    0.69894499   -0.51143998
 C          0.63600099    1.82365406    0.01902900
 H          1.51079905    0.71226299   -1.60432303
 O          2.87092209    0.89802903   -0.10826700
 O          0.87674701    1.90069699    1.42581904
 H          0.92487699    2.76105499   -0.46548200
 O         -1.13867605    1.70997798   -1.64193499
 H         -1.44518900    2.29313493    0.27712101
 H         -3.29065609    0.59009498    0.35176301
 O         -3.01605797   -1.46843004    0.54441601
 H         -2.82501698   -0.31017601   -1.10320997
 H         -2.96618295   -1.38513994    1.50397396
 H         -0.84630102    0.91350901   -2.10429502
 H          0.65471798    2.78877306    1.72735906
 H          2.83999491    1.20720100    0.80814099
 O          1.72048104   -1.65667403   -0.70784003
 H          1.07131803   -0.77468097    1.02865303
 C          1.52427399   -2.95605206   -0.14754400
 H          0.48657599   -3.28054905   -0.25903100
 H          1.79621601   -2.95838594    0.91353601
 H          2.17852807   -3.63539410   -0.69282401
