27
wb97x-d4 ma-def2-tzvp(-f) cpcm(dmso) E: -727.024929349974, G: -726.83302224
 C         -1.24761295    0.21946000    0.74669200
 C         -0.92900801    1.41631699   -0.15157899
 O         -0.41818100   -0.89993000    0.43086201
 C         -2.69051790   -0.24831200    0.66569799
 H         -1.06201994    0.53144097    1.78309500
 C          0.95522600   -0.61711401    0.64209598
 C          1.39579797    0.50203198   -0.30129400
 C          0.55686802    1.75449204   -0.06537600
 H          1.24430597    0.18322900   -1.33640301
 O          2.75419402    0.85828799   -0.06953000
 O          0.80041200    2.30137897    1.22549498
 H          0.79713899    2.49119997   -0.84100097
 O         -1.22168601    1.18424904   -1.52470195
 H         -1.50050497    2.27481389    0.22389600
 H         -2.85229611   -1.05141306    1.39021599
 O         -3.06116295   -0.68661797   -0.64677501
 H         -3.34991002    0.58538002    0.91451102
 H         -2.61487389   -1.52567697   -0.81616002
 H         -1.97873795    0.57710099   -1.55859399
 H          1.75843501    2.32235003    1.34771097
 H          3.28180504    0.05088500   -0.03838700
 O          1.69259906   -1.79349196    0.49072200
 H          1.11317599   -0.31000200    1.68220198
 C          1.64474201   -2.40003705   -0.80705702
 H          2.22574997   -1.82886696   -1.53669798
 H          0.61579299   -2.50369096   -1.15617001
 H          2.09026909   -3.38746190   -0.69346797
