27
wb97x-d4 ma-def2-tzvp(-f) cpcm(dmso) E: -727.023404513364, G: -726.83293021
 C         -1.34710097    0.21960500    0.52121800
 C         -0.93966800    1.38211405   -0.37505299
 O         -0.48808500   -0.90815198    0.32958999
 C         -2.76356006   -0.25863200    0.26925099
 H         -1.26494706    0.55723298    1.56196296
 C          0.85421598   -0.62056798    0.68104702
 C          1.39260399    0.46286699   -0.25415000
 C          0.53617197    1.72210395   -0.15606201
 H          1.34851301    0.10168500   -1.28594899
 O          2.71906304    0.83530903    0.10014500
 O          0.65142000    2.32404494    1.12772799
 H          0.85861403    2.42736411   -0.93271601
 O         -1.17184603    1.02247703   -1.73271298
 H         -1.54111397    2.25512791   -0.09664300
 H         -3.44819593    0.58789003    0.35100800
 O         -3.17378807   -1.21877503    1.24069297
 H         -2.83920097   -0.67397702   -0.73961300
 H         -2.57023907   -1.96895194    1.17761195
 H         -1.02247596    1.80271101   -2.27954507
 H          1.59245205    2.34849691    1.34537995
 H          3.24544597    0.03424000    0.21193001
 O          1.59881604   -1.80172598    0.65081000
 H          0.90212899   -0.27446699    1.71979403
 C          1.69208598   -2.45141602   -0.62334001
 H          0.70881200   -2.55879688   -1.08460605
 H          2.11036110   -3.43802094   -0.42790100
 H          2.35951805   -1.90978098   -1.29987895
