27
wb97x-d4 ma-def2-tzvp(-f) cpcm(dmso) E: -727.025721678803, G: -726.8323961899999
 C         -1.05554402   -0.03615400    1.02226901
 C         -0.70834303    1.41333997    0.63308698
 O          0.12991901   -0.80000401    1.30545104
 C         -2.02078509   -0.73607302    0.06566100
 H         -1.57042396   -0.00518200    1.98576605
 C          1.18083799   -0.74824601    0.37405899
 C          1.62010705    0.67737901    0.06107500
 C          0.42778000    1.51216698   -0.37867299
 H          2.35927010    0.63936698   -0.74629903
 O          2.20754409    1.20136297    1.24415505
 O          0.88108099    2.85985994   -0.49354199
 H          0.08749700    1.15551901   -1.35476804
 O         -1.85518205    2.11690903    0.16335100
 H         -0.39141300    1.93798006    1.53645396
 H         -2.02659011   -1.80464303    0.30777800
 O         -1.76714802   -0.52356303   -1.31993198
 H         -3.02304506   -0.34664500    0.25228599
 H         -0.87126702   -0.85537601   -1.49276602
 H         -2.12877607    1.70102704   -0.66664302
 H          0.10295900    3.42134404   -0.60137200
 H          2.27747607    2.15721512    1.12124097
 O          0.85693598   -1.37078798   -0.85025299
 H          2.00387192   -1.28597701    0.85441297
 C          0.82658798   -2.80020189   -0.76152200
 H          0.55829501   -3.17103696   -1.74999905
 H          0.08440200   -3.13126206   -0.03099900
 H          1.81395400   -3.17831707   -0.48027900
