27
wb97x-d4 ma-def2-tzvp(-f) cpcm(dmso) E: -727.024485322495, G: -726.8323844
 C         -1.11549401   -0.10702700    0.82406300
 C         -0.81834900    1.34451199    0.43566099
 O          0.08223000   -0.74915498    1.27797496
 C         -1.85227799   -0.90137899   -0.26347101
 H         -1.76994503   -0.10213600    1.69920599
 C          1.20960104   -0.69096202    0.42832401
 C          1.55519903    0.73863298    0.00540200
 C          0.32597199    1.42853701   -0.56555998
 H          2.34129596    0.69384903   -0.75288302
 O          1.98724103    1.50609398    1.12564898
 O          0.59226501    2.78601789   -0.90107697
 H          0.03963100    0.93421000   -1.49525797
 O         -2.00876093    1.90961301   -0.11084000
 H         -0.53014100    1.89297295    1.33936501
 H         -1.41890001   -0.73670799   -1.25293100
 O         -3.24359012   -0.58323801   -0.26855400
 H         -1.77321303   -1.96320605   -0.02738600
 H         -3.30259204    0.36611101   -0.44302800
 H         -1.77211702    2.76371789   -0.49450800
 H          1.06899595    3.17155409   -0.15263100
 H          2.92144299    1.32576597    1.27908599
 O          1.04809499   -1.44017303   -0.74495202
 H          2.02486610   -1.10320306    1.03356099
 C          1.09202695   -2.84945107   -0.52503502
 H          0.98857802   -3.32549405   -1.49948096
 H          0.27739099   -3.17524409    0.12696700
 H          2.05054903   -3.13421202   -0.07766500
