27
wb97x-d4 ma-def2-tzvp(-f) cpcm(dmso) E: -727.024912187791, G: -726.8321211699999
 C         -1.14223897   -0.03581500    0.96320200
 C         -0.85539699    1.41455102    0.56319702
 O          0.08864000   -0.72201002    1.25828195
 C         -2.07614398   -0.81293201    0.03725500
 H         -1.65790796   -0.01651200    1.92742801
 C          1.13117301   -0.65725100    0.31705299
 C          1.45072901    0.77092302   -0.13082901
 C          0.18810999    1.51768804   -0.54342300
 H          2.14620304    0.72332901   -0.97278202
 O          2.02870893    1.49964499    0.95076102
 O          0.47374499    2.88402605   -0.82546502
 H         -0.20918401    1.08988905   -1.46295297
 O         -2.08382297    2.01963210    0.17909700
 H         -0.45389000    1.92576206    1.44658196
 H         -2.12410092   -1.84257102    0.41414100
 O         -1.76115096   -0.79774499   -1.34830403
 H         -3.07020402   -0.37394300    0.13307001
 H         -0.84684199   -1.11432004   -1.43457198
 H         -1.88031995    2.92909408   -0.07292700
 H          1.05383599    3.19827509   -0.11757500
 H          2.97340298    1.31170297    0.97848600
 O          0.87523597   -1.42461705   -0.84083003
 H          1.99868405   -1.07410800    0.83876997
 C          0.92753500   -2.83598590   -0.59924698
 H          1.91090095   -3.11148906   -0.20685600
 H          0.76324898   -3.32505202   -1.55848396
 H          0.15104900   -3.14016700    0.10692500
