27
wb97x-d4 ma-def2-tzvp(-f) cpcm(dmso) E: -727.022767520745, G: -726.83206262
 C         -1.30972004    0.28323299    0.50865602
 C         -0.88670200    1.39646006   -0.45071000
 O         -0.46836099   -0.86418402    0.36492100
 C         -2.73233390   -0.18959700    0.28714100
 H         -1.21810901    0.66904598    1.53220999
 C          0.88025498   -0.58239299    0.69608802
 C          1.43027699    0.45345199   -0.28563100
 C          0.58939803    1.72659099   -0.23912500
 H          1.38075495    0.05015000   -1.30166698
 O          2.76141596    0.82343900    0.05236300
 O          0.70546299    2.37056303    1.02417898
 H          0.91914201    2.39812803   -1.03966701
 O         -1.03640497    1.02876401   -1.81955504
 H         -1.47392905    2.29311395   -0.22585800
 H         -3.41067600    0.66339397    0.35853201
 O         -3.13800406   -1.12662804    1.28121805
 H         -2.82460999   -0.62958199   -0.71163499
 H         -2.52163291   -1.86836803    1.24478102
 H         -1.95328200    1.16926801   -2.07941508
 H          1.64515400    2.38678288    1.24790895
 H          3.28147793    0.02102700    0.18270500
 O          1.60673296   -1.77497995    0.71166998
 H          0.93963200   -0.19375400    1.71893203
 C          1.68574703   -2.47791696   -0.53475398
 H          2.09500694   -3.45987391   -0.30061200
 H          2.35466599   -1.97213995   -1.23691201
 H          0.69864398   -2.59399295   -0.98576200
