27
wb97x-d4 ma-def2-tzvp(-f) cpcm(dmso) E: -727.026610581007, G: -726.8358407
 C         -1.15436995    0.23790599    0.48682699
 C         -0.86118001    1.60108399   -0.12896501
 O         -0.47912800   -0.76405901   -0.28052500
 C         -2.62648392   -0.12350700    0.49834600
 H         -0.77524197    0.22671400    1.51567101
 C          0.93887502   -0.66447198   -0.15916400
 C          1.40244305    0.65678400   -0.77404398
 C          0.65591502    1.83405304   -0.14282700
 H          1.17593503    0.61732602   -1.84280503
 O          2.80270910    0.83290201   -0.64908898
 O          1.15471995    1.96209300    1.19001901
 H          0.87476403    2.73927093   -0.71694899
 O         -1.39661896    1.72155094   -1.44289899
 H         -1.32904398    2.38489604    0.47248799
 H         -3.18209910    0.65282202    1.02804399
 O         -2.86014795   -1.34708500    1.19095302
 H         -3.00532699   -0.18514100   -0.52672702
 H         -2.36675811   -2.03723502    0.73085499
 H         -1.20642102    0.90374798   -1.92097998
 H          1.00230598    2.86580896    1.48892605
 H          2.95929599    1.18024504    0.24049100
 O          1.50927198   -1.71328998   -0.86330903
 H          1.20888305   -0.71889699    0.90687001
 C          1.40164495   -2.97151399   -0.19540900
 H          0.35673699   -3.27528191   -0.09200000
 H          1.86662602   -2.91798711    0.79481697
 H          1.93269503   -3.69873309   -0.80861402
