27
wb97x-d4 ma-def2-tzvp(-f) cpcm(dmso) E: -727.02365905927, G: -726.83200743
 C         -1.17825997    0.15604500    0.76666600
 C         -0.92932701    1.34660995   -0.16321400
 O         -0.33032900   -0.94255197    0.43140599
 C         -2.61238289   -0.33107200    0.78714800
 H         -0.94814098    0.49216300    1.78666103
 C          1.03810799   -0.61529201    0.60443503
 C          1.42083204    0.50522900   -0.36272299
 C          0.54685003    1.73367298   -0.12474200
 H          1.25785100    0.16808000   -1.39014399
 O          2.77177906    0.90947002   -0.16646200
 O          0.80919302    2.31210399    1.14849997
 H          0.74082702    2.46372509   -0.91939503
 O         -1.24852300    1.07730305   -1.52293396
 H         -1.51805305    2.19346499    0.21219601
 H         -2.69599104   -1.16833305    1.48686695
 O         -3.01020503   -0.74748701   -0.52578300
 H         -3.24881196    0.48774999    1.13708603
 H         -3.96933794   -0.84127301   -0.53781199
 H         -2.01537395    0.48142099   -1.52087498
 H          1.76937604    2.35473990    1.24630702
 H          3.32640505    0.12041800   -0.13447399
 O          1.80762196   -1.77050102    0.44920000
 H          1.21301496   -0.28981501    1.63652897
 C          1.75215197   -2.39148808   -0.84116000
 H          2.22734189   -3.36491609   -0.72658199
 H          2.30329299   -1.81200802   -1.58729506
 H          0.72009301   -2.52745891   -1.16940498
