27
wb97x-d4 ma-def2-tzvp(-f) cpcm(dmso) E: -727.023868373059, G: -726.83174919
 C         -0.99756098   -0.09446200    0.85818398
 C         -0.63870698    1.35091305    0.48889601
 O          0.17963301   -0.80453801    1.26599503
 C         -1.80019999   -0.83440697   -0.22118700
 H         -1.62672806   -0.07413000    1.75174797
 C          1.27831399   -0.79050100    0.37764800
 C          1.68208206    0.62139899   -0.03749400
 C          0.47231600    1.39309895   -0.54425400
 H          2.42501497    0.54135197   -0.83785099
 O          2.25271702    1.25001597    1.10286498
 O          0.89433199    2.73199892   -0.78729302
 H          0.12596101    0.93576998   -1.47707105
 O         -1.76452100    2.03985190   -0.06940500
 H         -0.29706299    1.87080705    1.38726103
 H         -1.37882805   -0.68666500   -1.21827602
 O         -3.17111492   -0.43879199   -0.19631000
 H         -1.77688396   -1.90123200    0.00397700
 H         -3.18017411    0.50931901   -0.38457400
 H         -2.23271203    2.49101496    0.64256799
 H          0.09973500    3.26313496   -0.92614502
 H          2.32269406    2.19170094    0.89881003
 O          1.03780699   -1.51712000   -0.79594302
 H          2.09313703   -1.24760902    0.94930398
 C          1.00528502   -2.92820501   -0.58688903
 H          0.19619700   -3.21085191    0.09136900
 H          1.96017206   -3.27351308   -0.17565501
 H          0.83909798   -3.38835406   -1.56027603
