27
wb97x-d4 ma-def2-tzvp(-f) cpcm(dmso) E: -727.022474022637, G: -726.83118122
 C         -1.21050406    0.19982600    0.64066702
 C         -0.60555601    1.57624996    0.33652499
 O         -0.21647900   -0.67791098    1.19979203
 C         -1.94000304   -0.43088701   -0.54141301
 H         -1.93831694    0.31339699    1.44873703
 C          1.01329195   -0.80591798    0.51046002
 C          1.64328206    0.53758103    0.15404800
 C          0.63240802    1.44516206   -0.53122699
 H          2.48128200    0.34696499   -0.52427101
 O          2.11341310    1.11783600    1.36424899
 O          1.26042998    2.70908093   -0.72048301
 H          0.36317399    1.01248598   -1.50104296
 O         -1.52194405    2.42084193   -0.35604599
 H         -0.31410399    2.04109502    1.28246701
 H         -2.76418996    0.22089200   -0.83060700
 O         -2.51673293   -1.68118596   -0.16857700
 H         -1.27768302   -0.55839998   -1.40043497
 H         -1.82773697   -2.19966888    0.26338100
 H         -2.12624311    2.81302500    0.28460300
 H          0.56567401    3.34430599   -0.93684202
 H          2.31743193    2.04210711    1.16898596
 O          0.89199698   -1.54634297   -0.67480600
 H          1.66601598   -1.32679796    1.21837294
 C          0.83784401   -2.95471096   -0.45487401
 H          0.60739100   -3.41976309   -1.41263497
 H          0.06252500   -3.21895409    0.27055100
 H          1.80333495   -3.32031107   -0.08957800
