27
wb97x-d4 ma-def2-tzvp(-f) cpcm(dmso) E: -727.025023928143, G: -726.83110159
 C         -0.94043303    0.03254500    1.09071398
 C         -0.73244900    1.47236705    0.57274902
 O          0.31319299   -0.65551901    1.26949203
 C         -1.97646403   -0.77104503    0.30397600
 H         -1.33207798    0.10029300    2.10849905
 C          1.21990204   -0.64282000    0.19023000
 C          1.55162001    0.78429699   -0.22409700
 C          0.28539401    1.56754899   -0.56635499
 H          2.21331310    0.76187801   -1.09115899
 O          2.27897811    1.43590403    0.81500697
 O          0.60934103    2.92230797   -0.85024601
 H         -0.14881200    1.16303802   -1.48177004
 O         -1.97814596    2.05817699    0.21899299
 H         -0.35389999    2.07437110    1.40386605
 H         -1.87587905   -1.82621896    0.58017701
 O         -1.93301296   -0.60073000   -1.11030197
 H         -2.96724391   -0.43791401    0.61621499
 H         -1.05707800   -0.90364802   -1.39768898
 H         -2.30197906    1.58870697   -0.56235403
 H          1.19538903    3.22409010   -0.14244100
 H          1.85564303    1.23822701    1.66079497
 O          0.74822903   -1.33649898   -0.93924499
 H          2.11849308   -1.13295496    0.57712001
 C          0.79468900   -2.76046896   -0.77993798
 H          0.17187500   -3.07980299    0.05917300
 H          1.82695305   -3.08347392   -0.61695403
 H          0.41446200   -3.19265795   -1.70445597
