27
wb97x-d4 ma-def2-tzvp(-f) cpcm(dmso) E: -727.022164235974, G: -726.8307939599999
 C         -1.30125403    0.03491500    0.61243403
 C         -1.00141895    1.23580301   -0.28076899
 O         -0.37034801   -1.01492500    0.33063799
 C         -2.68674588   -0.56433898    0.39868400
 H         -1.19751096    0.34855101    1.65788496
 C          0.95739102   -0.64799798    0.67834401
 C          1.40367401    0.50225002   -0.22443800
 C          0.44914699    1.68555999   -0.08202300
 H          1.38520801    0.16793500   -1.26749301
 O          2.69971108    0.96600300    0.13070300
 O          0.54136199    2.25977898    1.21696997
 H          0.69521600    2.43234110   -0.84552199
 O         -1.25989401    0.95704597   -1.65246105
 H         -1.65365601    2.06629610   -0.00274900
 H         -2.76334095   -0.97228402   -0.61326897
 O         -3.71730494    0.38498899    0.64715099
 H         -2.82507610   -1.38173103    1.10868204
 H         -3.81967807    0.93609500   -0.13699400
 H         -0.88837802    0.09087300   -1.86369705
 H          1.48124897    2.36690688    1.41341102
 H          3.28915501    0.20547400    0.20549700
 O          1.77927303   -1.77237499    0.60034603
 H          0.99098003   -0.33526400    1.72769296
 C          1.91788197   -2.36154604   -0.69894701
 H          2.55280590   -1.75142002   -1.34798098
 H          0.94497597   -2.51177096   -1.17057300
 H          2.39657593   -3.32716393   -0.54152000
