27
wb97x-d4 ma-def2-tzvp(-f) cpcm(dmso) E: -727.027052778606, G: -726.83573823
 C         -1.17171001    0.00580300    0.47953400
 C         -0.95980400    1.48305702    0.13348800
 O         -0.33453301   -0.82890898   -0.32137299
 C         -2.60374403   -0.46817401    0.33843601
 H         -0.90487301   -0.11826600    1.53757703
 C          1.03846800   -0.58020699   -0.06113100
 C          1.38686597    0.84229702   -0.47649300
 C          0.51663798    1.84762800    0.27201599
 H          1.19535100    0.93549699   -1.55059004
 O          2.74202991    1.14941001   -0.17197500
 O          0.82989597    1.86098897    1.66060805
 H          0.67402798    2.84227300   -0.16126101
 O         -1.33969700    1.81058300   -1.19738603
 H         -1.52991796    2.08146191    0.85567403
 H         -2.66072989   -1.52418399    0.62000197
 O         -3.04989290   -0.29603800   -1.01401496
 H         -3.22771907    0.11505500    1.02261305
 H         -4.01042414   -0.37399101   -1.03049397
 H         -2.10228205    1.25169504   -1.41990805
 H          1.79313695    1.87079597    1.73360896
 H          3.29249501    0.44275001   -0.53194702
 O          1.80782104   -1.45012999   -0.82533997
 H          1.23584294   -0.73376101    1.01097703
 C          1.83240902   -2.78548193   -0.31574699
 H          2.51168990   -3.35264397   -0.95089102
 H          0.83699799   -3.23529100   -0.35127801
 H          2.20165706   -2.79221892    0.71529597
