27
wb97x-d4 ma-def2-tzvp(-f) cpcm(dmso) E: -727.021832638654, G: -726.83074411
 C         -1.13027000    0.11195300    0.81281102
 C         -0.70452201    1.53035200    0.42424700
 O          0.01669200   -0.63415200    1.24686897
 C         -1.95571995   -0.59753197   -0.25072801
 H         -1.75512505    0.17798100    1.70751905
 C          1.14520597   -0.67205501    0.39668700
 C          1.58997297    0.71583903   -0.07027100
 C          0.40753999    1.50354505   -0.61705297
 H          2.34564090    0.59217602   -0.85020399
 O          2.12105203    1.46588600    1.02037597
 O          0.79106998    2.82712793   -0.97351903
 H          0.04839600    1.02893698   -1.53235400
 O         -1.84271801    2.24016809   -0.04829300
 H         -0.31483701    2.01608109    1.32609606
 H         -2.78776407    0.05721600   -0.52273399
 O         -2.44367409   -1.81363499    0.32124200
 H         -1.36334205   -0.80629200   -1.14328206
 H         -2.98243999   -2.25646305   -0.34326500
 H         -1.53279400    3.11335301   -0.31990299
 H          1.34170198    3.16104388   -0.25125101
 H          3.04565191    1.22190201    1.13863802
 O          0.95489901   -1.44776797   -0.75565302
 H          1.93049395   -1.11609495    1.02002895
 C          0.79593903   -2.83805990   -0.47601399
 H         -0.13056400   -3.02237010    0.07174200
 H          1.64827704   -3.20827198    0.10519700
 H          0.76123703   -3.35086489   -1.43692803
