27
wb97x-d4 ma-def2-tzvp(-f) cpcm(dmso) E: -727.022886256536, G: -726.83060529
 C         -1.00560498   -0.02283400    0.88576603
 C         -0.58660197    1.42528403    0.60840797
 O          0.13644600   -0.78601301    1.28729606
 C         -1.77417600   -0.70098799   -0.25222701
 H         -1.66436994   -0.02572700    1.75812900
 C          1.26108694   -0.77226102    0.42657301
 C          1.70709300    0.63784200    0.04393500
 C          0.52184200    1.46735895   -0.43270800
 H          2.44341898    0.55100298   -0.76199001
 O          2.30736709    1.21676302    1.19596601
 O          0.98499101    2.80165005   -0.62540001
 H          0.16062100    1.05999506   -1.38318098
 O         -1.67376006    2.25798798    0.21562400
 H         -0.19243500    1.84174001    1.53857195
 H         -1.25741196   -0.61589998   -1.20852304
 O         -3.05707097   -0.05896200   -0.32404101
 H         -1.89088094   -1.76068497   -0.00862000
 H         -3.50280404   -0.36202800   -1.12356603
 H         -2.33776593    1.69854605   -0.22018699
 H          0.20315100    3.36168599   -0.71767998
 H          2.37700701    2.16573691    1.02758002
 O          1.04316497   -1.47919905   -0.76259798
 H          2.05032492   -1.25269902    1.01477504
 C          0.95197898   -2.89027095   -0.57111299
 H          0.85635602   -3.33732605   -1.55996597
 H          0.08008600   -3.15348196    0.03309900
 H          1.85794699   -3.26721501   -0.08392000
