27
wb97x-d4 ma-def2-tzvp(-f) cpcm(dmso) E: -727.021893567318, G: -726.82999999
 C         -1.11764503    0.09815300    0.67977399
 C         -0.68917799    1.50877202    0.25822100
 O          0.01156700   -0.61850101    1.20561504
 C         -1.88656795   -0.66646701   -0.39656201
 H         -1.78551495    0.19540000    1.54096901
 C          1.18670297   -0.68068802    0.41517800
 C          1.65921605    0.70946300   -0.00046500
 C          0.52020699    1.47496295   -0.66731399
 H          2.49120092    0.60579997   -0.69810802
 O          2.16963005    1.42948103    1.11915195
 O          0.91780001    2.79902291   -1.00621498
 H          0.25532299    0.98232102   -1.60542500
 O         -1.79216897    2.16677094   -0.35158399
 H         -0.40608999    2.05273104    1.16894305
 H         -2.71555090   -0.03765600   -0.72999299
 O         -2.37180996   -1.91717803    0.09191200
 H         -1.25678802   -0.89435399   -1.25397098
 H         -3.04402709   -1.73587298    0.75937402
 H         -1.47455096    3.03233004   -0.63889402
 H          1.37928402    3.16067290   -0.23648900
 H          1.56624997    1.32088900    1.86520696
 O          1.04779100   -1.43941700   -0.75082302
 H          1.92723203   -1.13924098    1.08032703
 C          0.88038701   -2.83506107   -0.49853599
 H          0.87368703   -3.33038497   -1.46903801
 H         -0.06208500   -3.02760100    0.01823900
 H          1.71569598   -3.21434593    0.10050400
