27
wb97x-d4 ma-def2-tzvp(-f) cpcm(dmso) E: -727.021590487767, G: -726.82982107
 C         -1.43012202    0.33258101    0.81925303
 C         -0.80217302    1.62497401    0.29906601
 O         -0.42063600   -0.48309699    1.43385601
 C         -2.23556590   -0.42114699   -0.24511300
 H         -2.10398698    0.57145798    1.64483094
 C          0.70948899   -0.80033201    0.66990602
 C          1.38431096    0.43980801    0.07277100
 C          0.36618200    1.32523799   -0.63363397
 H          2.14698696    0.11941900   -0.64261401
 O          1.97748601    1.22475505    1.10652494
 O          0.96243900    2.53470302   -1.08985400
 H          0.00322200    0.81027001   -1.52432096
 O         -1.81316304    2.37326097   -0.36657000
 H         -0.42174599    2.19053507    1.15767801
 H         -3.15704107    0.13070700   -0.43184099
 O         -2.60770202   -1.71569300    0.21161000
 H         -1.68633997   -0.49649900   -1.18588805
 H         -1.78252101   -2.20942593    0.31109399
 H         -1.38355398    3.15305305   -0.74032998
 H          1.50479496    2.86795902   -0.36092201
 H          2.85548496    0.87477499    1.29380202
 O          0.34483299   -1.71127403   -0.35194400
 H          1.40044796   -1.28608000    1.36759102
 C          1.35924399   -2.67165709   -0.64092898
 H          0.96141398   -3.32893801   -1.41324198
 H          1.59861696   -3.25766611    0.25294799
 H          2.26959991   -2.19168901   -1.01372802
