27
wb97x-d4 ma-def2-tzvp(-f) cpcm(dmso) E: -727.021498000633, G: -726.82939313
 C         -1.01168096    0.04055500    0.90848500
 C         -0.68539703    1.48939800    0.51242697
 O          0.17519300   -0.66197097    1.28690100
 C         -1.82574105   -0.73318499   -0.13472100
 H         -1.61847997    0.06847600    1.81748295
 C          1.23575795   -0.66343999    0.35196599
 C          1.61153996    0.74610698   -0.10429200
 C          0.38619801    1.52398002   -0.57602799
 H          2.33198500    0.66488802   -0.92253798
 O          2.17531109    1.48084700    0.98134398
 O          0.75047302    2.85456991   -0.91863900
 H          0.00117700    1.06709504   -1.48987603
 O         -1.85357904    2.20296311    0.12126800
 H         -0.28186300    1.99252295    1.39624703
 H         -1.41858602   -0.62962502   -1.14129603
 O         -3.16201711   -0.20616700   -0.08748000
 H         -1.82546198   -1.79155099    0.13842100
 H         -3.64806604   -0.54612601   -0.84776998
 H         -2.53274012    1.55673301   -0.13313800
 H          1.29995000    3.18566489   -0.19504100
 H          3.10921407    1.25484705    1.05249703
 O          0.95000601   -1.41399705   -0.79656500
 H          2.07482100   -1.10968697    0.89772999
 C          0.94151503   -2.82178092   -0.56307298
 H          0.17075500   -3.09951305    0.16033199
 H          1.91954195   -3.15152097   -0.19582500
 H          0.73017299   -3.30008197   -1.51881802
