27
wb97x-d4 ma-def2-tzvp(-f) cpcm(dmso) E: -727.020433425848, G: -726.8292100699999
 C         -1.15221095    0.35822400    0.50459099
 C         -0.73061001    1.12223303   -0.74522603
 O         -0.29362699   -0.76782203    0.77889103
 C         -2.56301808   -0.18958201    0.41473001
 H         -1.09511495    1.04820204    1.35395598
 C          1.05316198   -0.65473801    0.38896599
 C          1.54121494    0.79093701    0.39139801
 C          0.72209299    1.63508606   -0.60756898
 H          2.59609389    0.81037199    0.11269600
 O          1.36886406    1.33943498    1.69758904
 O          0.76905501    3.00269103   -0.23412000
 H          1.18408096    1.55186403   -1.59298897
 O         -0.90584099    0.35634699   -1.93379200
 H         -1.38090599    1.99364495   -0.84286499
 H         -3.25257707    0.63302797    0.21274801
 O         -2.98124790   -0.78467101    1.64262700
 H         -2.62709808   -0.91182798   -0.40432999
 H         -2.39467096   -1.53072798    1.81580198
 H         -0.24382100   -0.35226101   -1.90530896
 H          0.86038798    3.01792192    0.73064798
 H          2.21237993    1.30366004    2.16073489
 O          1.26124406   -1.15045798   -0.91880500
 H          1.62480998   -1.25934899    1.10046506
 C          1.12715900   -2.57194591   -1.00451601
 H          1.36987197   -2.85029411   -2.02927089
 H          0.10521700   -2.88189507   -0.77156699
 H          1.82510698   -3.05807209   -0.31548300
