27
wb97x-d4 ma-def2-tzvp(-f) cpcm(dmso) E: -727.021615765594, G: -726.82884697
 C         -0.96542901    0.24410801    0.91116500
 C         -0.87676400    1.08309305   -0.36063799
 O         -0.02238200   -0.84221601    0.92135102
 C         -2.34943795   -0.33005899    1.17426801
 H         -0.73591399    0.91328901    1.74962401
 C          1.17177606   -0.65817302    0.20491201
 C          1.61053801    0.80245602    0.16308200
 C          0.54205000    1.66428304   -0.54352599
 H          2.55826807    0.87433499   -0.37301999
 O          1.76451802    1.27858698    1.49920297
 O          0.62173098    3.00505590   -0.08957400
 H          0.75156999    1.66994905   -1.61502099
 O         -1.29458702    0.35746700   -1.52288997
 H         -1.56969297    1.92008698   -0.25980300
 H         -2.33517694   -0.87484097    2.12111807
 O         -2.80729508   -1.24019301    0.18040600
 H         -3.04294205    0.51457000    1.27846706
 H         -2.57440996   -0.84742802   -0.67535198
 H         -0.58840299   -0.28428099   -1.71143198
 H          0.96939498    2.96605897    0.81444401
 H          2.69531012    1.22188604    1.74077296
 O          1.05058801   -1.08513105   -1.13914502
 H          1.92203796   -1.27365696    0.71165597
 C          0.90170199   -2.50338411   -1.26150703
 H          1.75210702   -3.01121402   -0.79575503
 H          0.87888801   -2.72664309   -2.32743001
 H         -0.02804400   -2.83800697   -0.79537702
