27
wb97x-d4 ma-def2-tzvp(-f) cpcm(dmso) E: -727.018610644035, G: -726.82870221
 C         -1.10839105    0.14657301    0.52652597
 C         -0.82707798    1.52876902   -0.07092200
 O         -0.37353700   -0.85818398   -0.17990100
 C         -2.56833601   -0.25916901    0.49842101
 H         -0.77538198    0.15334301    1.57071304
 C          1.01777196   -0.78524202    0.11349500
 C          1.53665996    0.66837198    0.07901800
 C          0.56862003    1.53725100   -0.70494503
 H          2.51089692    0.66800201   -0.41636500
 O          1.64497006    1.23022294    1.38467503
 O          1.05343294    2.86360002   -0.87572402
 H          0.47739899    1.11480498   -1.70778799
 O         -1.81535304    1.85456395   -1.04862106
 H         -0.85906100    2.26634097    0.73854399
 H         -3.17200208    0.52101898    0.96444201
 O         -2.78552389   -1.45487595    1.24458396
 H         -2.89992905   -0.38459301   -0.53627598
 H         -2.23695993   -2.14353991    0.84952402
 H         -1.61643600    2.73988509   -1.37655997
 H          1.27774596    3.20293903    0.00100300
 H          2.42823100    0.86662501    1.81321394
 O          1.70444500   -1.51462400   -0.84970701
 H          1.18583000   -1.20977902    1.11587703
 C          1.44666398   -2.91874599   -0.78937101
 H          1.61617804   -3.29249907    0.22653900
 H          2.14634109   -3.39538503   -1.47509801
 H          0.42280301   -3.14567494   -1.09529698
