27
wb97x-d4 ma-def2-tzvp(-f) cpcm(dmso) E: -727.020178511982, G: -726.82851289
 C         -1.10089695    0.28676000    0.65149403
 C         -0.74571598    1.12758505   -0.56865698
 O         -0.24656001   -0.86454600    0.79271400
 C         -2.52324605   -0.23655801    0.61256099
 H         -0.98094797    0.91628700    1.53967702
 C          1.07984400   -0.73891300    0.33995700
 C          1.58917904    0.69603997    0.39671299
 C          0.71459001    1.61079204   -0.49225500
 H          2.62011790    0.70783198    0.02778900
 O          1.55477798    1.10383296    1.75429499
 O          0.73042899    2.93948698    0.03348300
 H          1.11529398    1.60736299   -1.50740397
 O         -1.00014400    0.44169500   -1.79006004
 H         -1.39035797    2.00869894   -0.57025701
 H         -3.21088910    0.60559797    0.50805902
 O         -2.87263799   -0.90562397    1.82354701
 H         -2.64947009   -0.90257400   -0.24595800
 H         -2.28270411   -1.66352999    1.91470397
 H         -0.35410801   -0.28024599   -1.84429395
 H          1.52282000    3.38670301   -0.28807700
 H          1.39210296    2.05894589    1.74250698
 O          1.21039200   -1.15920103   -1.00364697
 H          1.68075705   -1.38947797    0.98342401
 C          1.06052697   -2.57239008   -1.16305494
 H          1.78600502   -3.10070491   -0.53614098
 H          1.25241697   -2.79396296   -2.21213102
 H          0.04842800   -2.88989305   -0.89899099
