27
wb97x-d4 ma-def2-tzvp(-f) cpcm(dmso) E: -727.020327503663, G: -726.82809931
 C         -1.12673295   -0.24641600    0.57043701
 C         -0.63768297    1.22065902    0.72606701
 O         -0.27863199   -0.95788902   -0.33950201
 C         -2.53984594   -0.37310600    0.03383500
 H         -1.09188402   -0.74750698    1.54617298
 C          1.09016895   -0.81092900    0.01187300
 C          1.57205498    0.60432798   -0.31416601
 C          0.36555699    1.54442096   -0.37707499
 H          2.07238889    0.59507298   -1.28873003
 O          2.48654008    0.99214900    0.70203501
 O          0.84759402    2.87648511   -0.25411400
 H         -0.12222500    1.41539705   -1.34902298
 O         -1.68821800    2.18232012    0.73155600
 H         -0.13997599    1.33768594    1.69127798
 H         -2.75443602   -1.43143404   -0.14334600
 O         -2.74710703    0.39039901   -1.15715897
 H         -3.24731994    0.00508600    0.77182603
 H         -2.18570900    0.02242600   -1.85056806
 H         -2.20271993    2.04089403   -0.07874600
 H          0.09290300    3.42738199   -0.00625200
 H          2.55704999    1.95548105    0.65693498
 O          1.84317696   -1.72803497   -0.70639998
 H          1.19464397   -0.98906797    1.09429097
 C          1.68114102   -3.07290506   -0.24929100
 H          2.38089108   -3.68397903   -0.81799400
 H          0.66177398   -3.42642403   -0.42216200
 H          1.91660404   -3.14249492    0.81822002
