27
wb97x-d4 ma-def2-tzvp(-f) cpcm(dmso) E: -727.020374652746, G: -726.82809876
 C         -1.33881199    0.35457000    0.87331599
 C         -0.61481303    1.63904798    0.45161301
 O         -0.39641699   -0.56366998    1.44793606
 C         -2.17184591   -0.28016001   -0.24795300
 H         -2.01100492    0.58691102    1.70185196
 C          0.72499299   -0.90492803    0.68050200
 C          1.48914003    0.31698099    0.17078100
 C          0.54680598    1.32266200   -0.48007199
 H          2.22227311   -0.01860400   -0.57153201
 O          2.15341592    0.89153701    1.28904903
 O          1.31393504    2.48980403   -0.76451498
 H          0.16736101    0.89360100   -1.41450596
 O         -1.49624503    2.59963799   -0.12591000
 H         -0.21713699    2.11494589    1.34981501
 H         -3.06204510    0.33265600   -0.40338501
 O         -2.62341094   -1.57823706    0.11076000
 H         -1.61600804   -0.32139999   -1.18820703
 H         -1.82806504   -2.12325501    0.18608300
 H         -1.81155300    2.27457404   -0.97924298
 H          0.69590998    3.21292090   -0.93122703
 H          2.44379091    1.77269101    1.01795197
 O          0.32047001   -1.72597599   -0.39959300
 H          1.37311196   -1.47226501    1.35604405
 C          1.26082599   -2.75173497   -0.71424198
 H          2.22081208   -2.32955599   -1.02792895
 H          0.83735198   -3.32630491   -1.53716099
 H          1.41716003   -3.40644789    0.14977400
