27
wb97x-d4 ma-def2-tzvp(-f) cpcm(dmso) E: -727.020324759411, G: -726.82803967
 C         -1.08323002   -0.22964001    0.65332299
 C         -0.59490901    1.24336398    0.74611998
 O         -0.30089200   -0.95334399   -0.30423301
 C         -2.53117299   -0.37323400    0.22420099
 H         -0.97319901   -0.71294701    1.63249505
 C          1.08931100   -0.81473100   -0.04624400
 C          1.55866897    0.60145003   -0.38977301
 C          0.35255900    1.54141796   -0.41198200
 H          2.02579308    0.59207100   -1.38057101
 O          2.50682998    0.99047500    0.59510702
 O          0.84142703    2.87462902   -0.34023800
 H         -0.18287300    1.39283800   -1.35587394
 O         -1.64712405    2.20323992    0.77433598
 H         -0.05205300    1.38808596    1.68269396
 H         -2.75502801   -1.43599105    0.09065400
 O         -2.82447696    0.35800999   -0.96908301
 H         -3.18465996    0.02429200    1.00078702
 H         -2.30645895   -0.02317000   -1.68866003
 H         -2.20614505    2.02932096    0.00047100
 H          0.09830900    3.43253303   -0.07374000
 H          2.59590197    1.95090497    0.52903497
 O          1.78582501   -1.72825897   -0.82391798
 H          1.26618600   -1.00456095    1.02462995
 C          1.64722395   -3.07738400   -0.37208501
 H          1.95524895   -3.16067505    0.67580199
 H          2.30262709   -3.68523002   -0.99456799
 H          0.61631501   -3.42346597   -0.47868401
