27
wb97x-d4 ma-def2-tzvp(-f) cpcm(dmso) E: -727.02697079099, G: -726.83565951
 C         -1.17920005   -0.09847300    0.60922998
 C         -1.05077100    1.37099898    0.21441300
 O         -0.38266200   -0.92377597   -0.23956800
 C         -2.60919499   -0.61860198    0.59518200
 H         -0.81888002   -0.18134300    1.64345801
 C          0.99767399   -0.62051499   -0.11678900
 C          1.25243700    0.79751402   -0.61030900
 C          0.41862699    1.79727805    0.18440799
 H          0.95764798    0.84389800   -1.66432798
 O          2.61703610    1.16269004   -0.44493401
 O          0.86371100    1.87639296    1.53355205
 H          0.49327099    2.78115201   -0.29562500
 O         -1.64355898    1.56327295   -1.07219803
 H         -1.57087600    1.97329497    0.96654803
 H         -2.61970496   -1.63098204    1.00419700
 O         -3.19326210   -0.69443798   -0.70019102
 H         -3.20403504    0.02334700    1.25757098
 H         -2.99563599    0.14587399   -1.13948500
 H         -1.76787102    2.50929999   -1.21334898
 H          1.82840705    1.92562604    1.51190197
 H          3.15827703    0.46987900   -0.84373099
 O          1.72300804   -1.48819494   -0.92459100
 H          1.30091095   -0.72993702    0.93577200
 C          1.82818103   -2.81025290   -0.39156699
 H          2.27423596   -2.78312111    0.60822701
 H          2.47463202   -3.37073112   -1.06576502
 H          0.84759200   -3.29015589   -0.34203199
