27
wb97x-d4 ma-def2-tzvp(-f) cpcm(dmso) E: -727.021605775784, G: -726.82802742
 C         -1.12739301    0.23853400    1.20214903
 C         -0.73998803    1.53760505    0.46268001
 O          0.03243300   -0.55065203    1.53694296
 C         -2.23782301   -0.56467497    0.52236402
 H         -1.52377605    0.51901001    2.18086505
 C          0.95587200   -0.81892598    0.52025402
 C          1.47377300    0.47677299   -0.09745300
 C          0.31938300    1.32754397   -0.62207198
 H          2.15162396    0.24615400   -0.92115700
 O          2.24870706    1.20141399    0.85601300
 O          0.80766600    2.57219791   -1.10703504
 H         -0.13044000    0.82333201   -1.47856998
 O         -1.89782596    2.18361497   -0.04950600
 H         -0.32397199    2.22953391    1.20053506
 H         -2.26065993   -1.56411505    0.96952200
 O         -2.15126109   -0.63859802   -0.89758599
 H         -3.18787193   -0.07540700    0.74224597
 H         -1.33448601   -1.12312901   -1.09739304
 H         -2.25067306    1.61779904   -0.75088501
 H          1.40548599    2.92143393   -0.43157199
 H          1.77959704    1.19811201    1.70081604
 O          0.36615399   -1.65160704   -0.46100000
 H          1.77832997   -1.35275900    1.00690603
 C          1.29427600   -2.51703191   -1.11709404
 H          1.79625595   -3.15699005   -0.38455901
 H          2.04058290   -1.94817197   -1.67921901
 H          0.71603101   -3.13099599   -1.80619395
