27
wb97x-d4 ma-def2-tzvp(-f) cpcm(dmso) E: -727.018877962034, G: -726.82792415
 C         -1.25154996   -0.35009399    0.26606601
 C         -0.81544501    1.11659300    0.48518401
 O         -0.21971500   -1.07089400   -0.41905999
 C         -2.49359393   -0.49581200   -0.60851902
 H         -1.44188499   -0.82651901    1.23533201
 C          1.07211995   -0.75963801    0.08227700
 C          1.48216903    0.63943702   -0.38386199
 C          0.21983700    1.49712002   -0.56889099
 H          2.01698208    0.56058198   -1.33277094
 O          2.31494808    1.24780703    0.60166502
 O          0.51972097    2.88227105   -0.50054300
 H         -0.19801199    1.31266797   -1.56050301
 O         -1.95093298    1.97257805    0.40762600
 H         -0.35974401    1.22095096    1.47762406
 H         -2.37007403    0.08193800   -1.53121805
 O         -3.68383598   -0.12437200    0.07378400
 H         -2.59336591   -1.54960096   -0.87556702
 H         -3.59352493    0.81684798    0.27619699
 H         -1.61480999    2.87589788    0.33515599
 H          1.22395694    2.97338295    0.15953700
 H          3.21430898    1.29688001    0.26213101
 O          1.98319602   -1.68413198   -0.40620700
 H          1.04729104   -0.78986102    1.18314195
 C          1.88183403   -2.96512103    0.22046700
 H          0.91440201   -3.42819405    0.01158100
 H          2.01673388   -2.86967397    1.30324697
 H          2.67898989   -3.58104396   -0.19387600
