27
wb97x-d4 ma-def2-tzvp(-f) cpcm(dmso) E: -727.018297722871, G: -726.82790674
 C         -1.28603899   -0.10207800    0.45078000
 C         -0.71731299    1.32513905    0.59705001
 O         -0.39767399   -0.90777397   -0.33956400
 C         -2.62664199   -0.15412900   -0.26145300
 H         -1.38542700   -0.56715000    1.43919599
 C          0.95831698   -0.71568203    0.03424800
 C          1.44181299    0.63937497   -0.48720500
 C          0.24748400    1.60735703   -0.55274397
 H          1.86638498    0.51130599   -1.48531103
 O          2.42188311    1.17445004    0.40075099
 O          0.67644298    2.95922899   -0.52110797
 H         -0.27887601    1.46385801   -1.49846303
 O         -1.77864397    2.27061009    0.61099797
 H         -0.16029599    1.39695597    1.54005206
 H         -3.37716103    0.37799999    0.32040599
 O         -3.07841206   -1.50029898   -0.39038500
 H         -2.54328299    0.32078901   -1.24537396
 H         -2.38844609   -1.99209404   -0.85261202
 H         -1.36303997    3.14075494    0.54339802
 H          1.45745003    2.98216891    0.05262500
 H          3.28683591    1.11649299   -0.01766300
 O          1.73145294   -1.72274101   -0.52248502
 H          1.03382301   -0.73559600    1.13293898
 C          1.58347797   -2.97997594    0.14190400
 H          1.84474695   -2.88223195    1.20096803
 H          2.27052999   -3.67325497   -0.34164801
 H          0.56061000   -3.35348105    0.05070100
