27
wb97x-d4 ma-def2-tzvp(-f) cpcm(dmso) E: -727.01927611841, G: -726.8279057
 C         -1.03130496    0.13739599    0.74747199
 C         -0.82578200    0.99259400   -0.49821800
 O         -0.06095300   -0.91973299    0.85889202
 C         -2.38813305   -0.55419302    0.79710698
 H         -0.93732601    0.79528201    1.61872900
 C          1.20958805   -0.68648797    0.30410999
 C          1.59131002    0.79009002    0.32721299
 C          0.59099001    1.61226201   -0.51178700
 H          2.59817505    0.90597302   -0.07739100
 O          1.54797399    1.26078796    1.67386401
 O          0.58204299    2.95899606   -0.06666900
 H          0.92866200    1.61580598   -1.54972100
 O         -1.10089302    0.27612400   -1.69826806
 H         -1.53926206    1.81770802   -0.46426201
 H         -2.50223207   -1.20575202   -0.07323700
 O         -3.45559406    0.38622001    0.87760198
 H         -2.43478990   -1.16759896    1.69910800
 H         -3.64186692    0.71216702   -0.00997400
 H         -0.39460099   -0.38143000   -1.79620302
 H          0.79693002    2.93342209    0.87812400
 H          2.44456506    1.27518499    2.02494597
 O          1.27737606   -1.10363400   -1.04471803
 H          1.90965104   -1.27924299    0.90192598
 C          1.21660197   -2.52537799   -1.19185901
 H          1.34338796   -2.73787403   -2.25267100
 H          0.25220799   -2.91127110   -0.85206997
 H          2.02327704   -2.99741602   -0.62204403
