27
wb97x-d4 ma-def2-tzvp(-f) cpcm(dmso) E: -727.018629528148, G: -726.82788518
 C         -1.09810805    0.16421600    0.52359903
 C         -0.70752698    1.56551504    0.02995000
 O         -0.35001501   -0.83267599   -0.18155500
 C         -2.56499696   -0.17111699    0.34599900
 H         -0.85385197    0.09624800    1.58996499
 C          1.01427603   -0.84130597    0.22567700
 C          1.59516501    0.58032900    0.30870599
 C          0.72977901    1.53364694   -0.49604499
 H          2.60294604    0.56065899   -0.11622300
 O          1.64869797    0.95451200    1.68296301
 O          1.34313405    2.81781507   -0.45694199
 H          0.70628101    1.15993500   -1.52795696
 O         -1.57954204    2.11092901   -0.96078199
 H         -0.76786500    2.25809908    0.87129700
 H         -3.17568588    0.59492201    0.82627702
 O         -2.88762808   -1.41398096    0.96521401
 H         -2.81732607   -0.19785500   -0.71908402
 H         -2.31270194   -2.08412695    0.57521498
 H         -1.50797498    1.57750905   -1.76245403
 H          0.76340199    3.43952799   -0.91375703
 H          1.96006203    1.86773705    1.71914899
 O          1.74326301   -1.55959404   -0.71467799
 H          1.08025301   -1.31705499    1.21587002
 C          1.41134405   -2.94914007   -0.74673200
 H          2.14067292   -3.42991209   -1.39767599
 H          0.40624499   -3.10600996   -1.14494705
 H          1.47769904   -3.37882590    0.25895101
