27
wb97x-d4 ma-def2-tzvp(-f) cpcm(dmso) E: -727.019090802033, G: -726.82782048
 C         -0.93493903    0.06571000    0.86136299
 C         -0.75595599    0.99766397   -0.33259201
 O          0.01061500   -1.01820505    0.86480600
 C         -2.30551505   -0.59954798    0.91458601
 H         -0.79019201    0.66159701    1.76877606
 C          1.25880301   -0.78908098    0.26142800
 C          1.69467795    0.66701800    0.35379499
 C          0.67819899    1.56846905   -0.37239999
 H          2.67456388    0.76778901   -0.12328200
 O          1.79152203    0.97223401    1.73654401
 O          0.76900899    2.84587598    0.25176600
 H          0.97102898    1.64248002   -1.42311502
 O         -1.10300398    0.37753600   -1.56627405
 H         -1.44625998    1.83531594   -0.20886600
 H         -2.45942903   -1.19682300    0.01192900
 O         -3.35163593    0.35224801    1.08555305
 H         -2.33599496   -1.26446903    1.77997100
 H         -3.54930210    0.74539101    0.22809000
 H         -0.42812601   -0.29828101   -1.73707700
 H          0.27533099    3.48380208   -0.27605501
 H          1.73857498    1.93392599    1.81545603
 O          1.24526203   -1.12566400   -1.11170805
 H          1.96697295   -1.43828905    0.78616500
 C          1.11724102   -2.53201890   -1.33914196
 H          0.14742100   -2.89684200   -0.99148399
 H          1.91841304   -3.07170391   -0.82411402
 H          1.20272005   -2.68613195   -2.41411901
