27
wb97x-d4 ma-def2-tzvp(-f) cpcm(dmso) E: -727.020064958986, G: -726.82753962
 C         -1.16859901    0.33805901    0.47952500
 C         -0.67927098    1.30476403   -0.60120398
 O         -0.10987500   -0.43350399    1.09192395
 C         -2.26924491   -0.59113902   -0.00255500
 H         -1.56959200    0.94390601    1.29431999
 C          1.08858299   -0.56198102    0.36821401
 C          1.71712005    0.79022700   -0.02370900
 C          0.65711898    1.90250194   -0.15925600
 H          2.20945501    0.64801103   -0.98693901
 O          2.71265793    1.16926396    0.90895301
 O          0.49895799    2.52865195    1.11685503
 H          0.99468702    2.63591290   -0.89389199
 O         -0.57614899    0.74443197   -1.90612102
 H         -1.41675603    2.10670090   -0.67598897
 H         -3.08727694    0.00747600   -0.40973100
 O         -2.81129694   -1.35169995    1.07579398
 H         -1.90346301   -1.25425005   -0.79110497
 H         -2.08054996   -1.83360803    1.48290801
 H         -0.08668500   -0.09263100   -1.83777905
 H          0.47017300    3.48245001    0.98884898
 H          2.27379608    1.76286495    1.53813803
 O          0.91790199   -1.30816901   -0.82199597
 H          1.76953399   -1.09387195    1.03853703
 C          0.65784699   -2.69501209   -0.60011899
 H          0.57339197   -3.16034508   -1.58126998
 H         -0.27095300   -2.84380388   -0.04495500
 H          1.48848903   -3.14520502   -0.04739700
