27
wb97x-d4 ma-def2-tzvp(-f) cpcm(dmso) E: -727.018480589372, G: -726.82750942
 C         -1.03862596   -0.07730400    0.41043499
 C         -0.72721601    1.36996102   -0.01394900
 O         -0.19938400   -0.99708498   -0.28527001
 C         -2.47393394   -0.49547201    0.12488500
 H         -0.84749901   -0.16113700    1.48798501
 C          1.14935505   -0.91293198    0.16124500
 C          1.62616503    0.54409498    0.27754399
 C          0.70879799    1.45241201   -0.52105600
 H          2.63938594    0.60424799   -0.13025500
 O          1.63286602    0.89246202    1.66024995
 O          1.23099899    2.77554202   -0.43949500
 H          0.71767998    1.10716605   -1.56139898
 O         -1.55205405    1.85260904   -1.07390702
 H         -0.83615500    2.02165198    0.85787702
 H         -2.63153911   -0.54546499   -0.95335501
 O         -3.40456200    0.46246499    0.62937701
 H         -2.65815997   -1.48572099    0.55098999
 H         -3.38245511    0.43255600    1.59330702
 H         -2.44782901    1.93127000   -0.72004902
 H          0.62185103    3.36344290   -0.90257102
 H          1.86975706    1.82668495    1.71832597
 O          1.95252204   -1.56755304   -0.76454300
 H          1.22146106   -1.39449704    1.14842200
 C          1.73709500   -2.97964311   -0.80210203
 H          0.75390601   -3.21833897   -1.21431899
 H          1.82479799   -3.40379095    0.20432900
 H          2.51277304   -3.39762497   -1.44270003
