27
wb97x-d4 ma-def2-tzvp(-f) cpcm(dmso) E: -727.018045004373, G: -726.82726925
 C         -1.00324905   -0.06253500    0.45958599
 C         -0.69441301    1.37804902    0.01081900
 O         -0.17674901   -0.99155003   -0.23807900
 C         -2.43880010   -0.47984201    0.19732000
 H         -0.79868501   -0.13219100    1.53447104
 C          1.17673695   -0.90933597    0.19469900
 C          1.65815401    0.54682398    0.30370599
 C          0.74190599    1.45481598   -0.49661300
 H          2.67005110    0.60121298   -0.10826300
 O          1.67028105    0.90179598    1.68438494
 O          1.26909399    2.77624512   -0.41893101
 H          0.74876797    1.10618198   -1.53576696
 O         -1.52033305    1.84012794   -1.05722106
 H         -0.80506700    2.04230094    0.87299198
 H         -2.59974289   -0.56703699   -0.88191003
 O         -3.28438711    0.52753001    0.75742900
 H         -2.62593198   -1.45139503    0.66343701
 H         -4.20047092    0.25868699    0.62589198
 H         -2.42082810    1.89733303   -0.70983899
 H          0.65770400    3.36815095   -0.87376499
 H          1.89837599    1.83861303    1.73630798
 O          1.96887100   -1.56638002   -0.73859203
 H          1.25783598   -1.38948798    1.18183005
 C          1.74444306   -2.97708702   -0.77886897
 H          2.51586008   -3.39826894   -1.42249405
 H          0.75863200   -3.20855093   -1.18886101
 H          1.83194602   -3.40420699    0.22633100
