27
wb97x-d4 ma-def2-tzvp(-f) cpcm(dmso) E: -727.018559478337, G: -726.82690072
 C         -1.04142702   -0.13045800    0.55649799
 C         -0.79426301    1.33519602    0.14862800
 O         -0.21468601   -1.00348198   -0.21262300
 C         -2.47801208   -0.58854800    0.34084800
 H         -0.78741902   -0.23311000    1.61788094
 C          1.15474105   -0.89121401    0.15941700
 C          1.59634197    0.57623702    0.28224900
 C          0.60796100    1.47140205   -0.44391000
 H          2.58268404    0.67598701   -0.18009000
 O          1.66789997    0.89646697    1.66930699
 O          1.09287798    2.80738091   -0.36660001
 H          0.57368201    1.14263296   -1.49060798
 O         -1.76858401    1.86309004   -0.75822598
 H         -0.86943102    1.96537995    1.03547299
 H         -2.68261409   -0.65955698   -0.73312098
 O         -3.40558004    0.27786499    0.98312801
 H         -2.60489106   -1.58039105    0.77738702
 H         -3.37796092    1.11247897    0.49579799
 H         -1.69386804    1.39881206   -1.60194504
 H          0.43110999    3.38896298   -0.76065499
 H          1.88417006    1.83510900    1.73623002
 O          1.92033696   -1.50281501   -0.82546300
 H          1.29631305   -1.39124095    1.12961698
 C          1.74936903   -2.92080212   -0.87524199
 H          2.49610710   -3.30173802   -1.57098401
 H          0.75036001   -3.18612599   -1.22886205
 H          1.91478395   -3.35751796    0.11586600
