27
wb97x-d4 ma-def2-tzvp(-f) cpcm(dmso) E: -727.026218914261, G: -726.83559625
 C         -1.26873899    0.18147101    0.29056200
 C         -0.92059398    1.60577202   -0.14587501
 O         -0.40809700   -0.76524597   -0.34852001
 C         -2.68881798   -0.22406600   -0.04921200
 H         -1.13132906    0.11743600    1.37759602
 C          0.94617301   -0.58657199    0.03459000
 C          1.42982399    0.77578300   -0.44526699
 C          0.55669600    1.88737094    0.12926400
 H          1.35512602    0.79278803   -1.53828001
 O          2.76389098    1.02604699   -0.02145500
 O          0.71535498    1.98126900    1.54048800
 H          0.82855701    2.83560991   -0.34750700
 O         -1.13010097    1.81818104   -1.53937399
 H         -1.51682901    2.30922890    0.44466701
 H         -3.38581395    0.48324800    0.40517500
 O         -3.00437808   -1.51259899    0.47120601
 H         -2.82970500   -0.20749500   -1.13545406
 H         -2.35588193   -2.13092089    0.11215100
 H         -2.05889511    2.02751994   -1.68449199
 H          1.66330302    1.94324195    1.72258997
 H          3.30246711    0.26700500   -0.27786300
 O          1.72347605   -1.55648506   -0.58706897
 H          1.02806902   -0.66923302    1.12877595
 C          1.60916698   -2.85067511    0.00874900
 H          2.30012202   -3.50348401   -0.52329999
 H          0.59173900   -3.23741889   -0.08962600
 H          1.88521802   -2.80777907    1.06747901
