27
wb97x-d4 ma-def2-tzvp(-f) cpcm(dmso) E: -727.020017976634, G: -726.82633802
 C         -1.09565198    0.07718000    1.01681602
 C         -0.93552798    1.56350803    0.58480299
 O          0.17482500   -0.57982200    1.13633001
 C         -2.08741212   -0.72795802    0.18290900
 H         -1.48263502    0.05332300    2.03760195
 C          1.05164397   -0.55446303    0.03722900
 C          1.04850698    0.77302301   -0.73335099
 C          0.49836600    1.88771403    0.13408600
 H          0.40689600    0.67012501   -1.60984695
 O          2.34603095    1.06716299   -1.22742605
 O          1.39209700    2.04989505    1.23526394
 H          0.45746401    2.80793500   -0.45583701
 O         -1.86825705    1.95279396   -0.41849199
 H         -1.14847600    2.20034695    1.44557905
 H         -2.07871103   -1.76133096    0.54407501
 O         -1.84105396   -0.68704200   -1.22434700
 H         -3.08718109   -0.31930301    0.33797100
 H         -1.00015402   -1.15284503   -1.37837601
 H         -1.88916898    1.25302398   -1.09056497
 H          1.29365098    2.94545197    1.57667303
 H          2.86913204    1.38222504   -0.47773001
 O          0.77038300   -1.57732201   -0.89999300
 H          2.04167008   -0.73299301    0.46819001
 C          0.99730402   -2.89450407   -0.39142799
 H          0.29418299   -3.13092804    0.41073301
 H          2.02271891   -2.98241210   -0.01820400
 H          0.84935802   -3.58278894   -1.22266495
