27
wb97x-d4 ma-def2-tzvp(-f) cpcm(dmso) E: -727.018574855412, G: -726.82616175
 C         -1.05711198    0.11237200    0.62727898
 C         -0.74426699    1.18906403   -0.41917601
 O          0.10996000   -0.58965099    1.10157299
 C         -2.10559201   -0.89815599    0.17303200
 H         -1.44789100    0.63197702    1.50577903
 C          1.24519205   -0.57259899    0.27524701
 C          1.72524297    0.84879601   -0.07866900
 C          0.57169002    1.87040806   -0.04346200
 H          2.13605905    0.80959201   -1.08861899
 O          2.76972198    1.25462401    0.78755599
 O          0.47824800    2.39394999    1.28475904
 H          0.78492999    2.67870808   -0.74564701
 O         -0.70130801    0.72848600   -1.76452696
 H         -1.54828405    1.92557096   -0.38053301
 H         -1.82005703   -1.36110997   -0.77151603
 O         -3.36383891   -0.26688999   -0.05030100
 H         -2.18764997   -1.68214202    0.93291402
 H         -3.71719289    0.01004800    0.80347800
 H         -0.14984900   -0.07105700   -1.79350996
 H          0.31556699    3.34134507    1.22842002
 H          2.34460592    1.76546597    1.49404800
 O          1.02618694   -1.26533401   -0.93962902
 H          2.02326703   -1.08181095    0.85124201
 C          0.85734099   -2.67429709   -0.76911300
 H          0.69153100   -3.09378004   -1.76053500
 H          0.00090800   -2.89697909   -0.12916000
 H          1.76259005   -3.10660005   -0.33092901
