27
wb97x-d4 ma-def2-tzvp(-f) cpcm(dmso) E: -727.017972768421, G: -726.82612722
 C         -0.98655599    0.14917700    0.75335002
 C         -0.74595499    1.22704697   -0.31113201
 O          0.20489700   -0.57294297    1.12491596
 C         -2.07922697   -0.84280902    0.38532099
 H         -1.29769599    0.66902602    1.66163695
 C          1.26836395   -0.56492603    0.20727700
 C          1.73930502    0.85181302   -0.17497800
 C          0.60640103    1.88779998   -0.04290300
 H          2.06645989    0.81310701   -1.21511102
 O          2.85673499    1.23706806    0.60571498
 O          0.63050997    2.40617490    1.28988600
 H          0.77249801    2.69632006   -0.75764799
 O         -0.82596701    0.77589899   -1.65812695
 H         -1.53199303    1.97554195   -0.19956400
 H         -1.87171495   -1.31232405   -0.58016002
 O         -3.30921292   -0.11980200    0.33895701
 H         -2.11262393   -1.62153196    1.15491104
 H         -3.99652696   -0.72004801    0.03008800
 H         -0.28759101   -0.02883600   -1.73991799
 H          0.44055799    3.34961200    1.25424504
 H          2.49927592    1.75322700    1.34494698
 O          0.93946397   -1.24226105   -0.99119401
 H          2.08279991   -1.09097004    0.71356797
 C          0.76552099   -2.65040302   -0.82004702
 H          1.69734597   -3.09899211   -0.46106100
 H          0.51409698   -3.05789900   -1.79843998
 H         -0.03916600   -2.86806798   -0.11453600
