27
wb97x-d4 ma-def2-tzvp(-f) cpcm(dmso) E: -727.016213614171, G: -726.8253587
 C         -1.07602894   -0.04007900    0.43232301
 C         -0.77829701    1.39988303   -0.01835400
 O         -0.24052200   -0.95277500   -0.28217500
 C         -2.51503110   -0.48485899    0.22042300
 H         -0.84834200   -0.10997700    1.50328803
 C          1.10817206   -0.88054597    0.16939200
 C          1.57911503    0.57229501    0.34862700
 C          0.68667799    1.49818504   -0.45719999
 H          2.60545993    0.64361203   -0.02319100
 O          1.53939295    0.88252699    1.73951602
 O          1.19929397    2.82033801   -0.32593700
 H          0.74771798    1.17530799   -1.50477803
 O         -1.62367499    1.88467205   -1.06003499
 H         -0.94807303    2.07238889    0.82345402
 H         -2.79291701   -0.38882199   -0.82995200
 O         -3.42297506    0.32126001    0.96467698
 H         -2.59947610   -1.53840101    0.50512701
 H         -3.32645392    0.09758400    1.89760303
 H         -1.46354401    1.36096799   -1.85509706
 H          0.59949201    3.41965294   -0.78679103
 H          1.77245498    1.81501997    1.83097303
 O          1.91667902   -1.48975205   -0.78277898
 H          1.18105102   -1.40450501    1.13461196
 C          1.70434594   -2.89898300   -0.88686001
 H          2.48965502   -3.28695011   -1.53461802
 H          0.72734499   -3.12007904   -1.32281494
 H          1.77848303   -3.36796689    0.10057100
