27
wb97x-d4 ma-def2-tzvp(-f) cpcm(dmso) E: -727.016247822382, G: -726.8252849099999
 C         -1.05020404   -0.04172300    0.49295500
 C         -0.77916402    1.40138805    0.03583000
 O         -0.26201800   -0.94810301   -0.28098401
 C         -2.50055408   -0.48293999    0.36994901
 H         -0.75552499   -0.12066800    1.54686797
 C          1.11153901   -0.88317603    0.09062100
 C          1.59525704    0.56706798    0.25758800
 C          0.65934998    1.50396705   -0.48353601
 H          2.59794497    0.64117199   -0.17347801
 O          1.63856804    0.86101699    1.65194595
 O          1.18120003    2.82369900   -0.36514300
 H          0.66089600    1.19391501   -1.53663802
 O         -1.68288898    1.89059603   -0.95379400
 H         -0.90204602    2.06855202    0.88999999
 H         -2.84744096   -0.37033400   -0.65786600
 O         -3.35595798    0.31268299    1.18478000
 H         -2.56708908   -1.54069102    0.64381599
 H         -3.18719292    0.08627600    2.10692596
 H         -1.56564903    1.37241304   -1.75997102
 H          0.56201899    3.42865705   -0.79166001
 H          1.87873602    1.79197896    1.74054301
 O          1.86069798   -1.48464704   -0.91327000
 H          1.23977995   -1.41676104    1.04471099
 C          1.64727104   -2.89413500   -1.01133800
 H          1.78653204   -3.36789894   -0.03329300
 H          2.39075494   -3.27543402   -1.71040702
 H          0.64518499   -3.11687207   -1.38515794
