27
wb97x-d4 ma-def2-tzvp(-f) cpcm(dmso) E: -727.017068803369, G: -726.8252179799999
 C         -1.11986697    0.03968100    0.93759900
 C         -0.63921398    1.35869503    0.28406399
 O         -0.41075501   -1.08833396    0.41567600
 C         -2.59089494   -0.26229900    0.71461397
 H         -0.94264901    0.09873100    2.01847601
 C          0.97300899   -1.07019305    0.73051900
 C          1.61931705    0.28262699    0.36142099
 C          0.65916902    1.10789800   -0.47567201
 H          2.53769398    0.10076000   -0.20524000
 O          1.93609595    0.94090599    1.58686101
 O          1.30594301    2.33132195   -0.81047499
 H          0.42274201    0.54693002   -1.38777804
 O         -1.58757699    1.98561502   -0.57786000
 H         -0.44286001    2.08632207    1.07323503
 H         -2.86380291   -1.15672696    1.28216505
 O         -2.88401103   -0.44669300   -0.67427897
 H         -3.19986010    0.57352501    1.05981600
 H         -2.36910105   -1.20389402   -0.98114902
 H         -2.03075099    1.28567398   -1.08259296
 H          0.64504802    2.90343690   -1.22094095
 H          2.27314401    1.81766903    1.36233497
 O          1.56638801   -2.17294502    0.11880800
 H          1.10301101   -1.22333205    1.80767500
 C          1.51167703   -2.19072199   -1.31021094
 H          2.07100010   -1.35568094   -1.74277198
 H          0.47952899   -2.16339803   -1.66522801
 H          1.97757804   -3.12557411   -1.61906898
