27
wb97x-d4 ma-def2-tzvp(-f) cpcm(dmso) E: -727.017074364936, G: -726.8251619499999
 C         -1.08234406    0.03655100    0.98752201
 C         -0.64212799    1.35641098    0.30532601
 O         -0.37329000   -1.08682501    0.45571399
 C         -2.55422711   -0.29002699    0.81029999
 H         -0.87391001    0.10910200    2.06199193
 C          1.02210999   -1.03980696    0.70931798
 C          1.63044500    0.31220201    0.27784100
 C          0.61507303    1.10888898   -0.52118403
 H          2.51899004    0.13030399   -0.33460501
 O          2.00516105    1.00064802    1.47026396
 O          1.22383499    2.33595800   -0.90967101
 H          0.33843201    0.52920800   -1.41001499
 O         -1.63727498    1.97868097   -0.50584900
 H         -0.40615901    2.08740711    1.08008301
 H         -2.79323196   -1.19000399    1.38427496
 O         -2.88681293   -0.47795999   -0.56955898
 H         -3.16705799    0.53432500    1.17532504
 H         -2.37009096   -1.22706604   -0.89274102
 H         -2.09174705    1.27672899   -0.99773097
 H          0.52968699    2.89427996   -1.28267503
 H          2.31657696    1.87642896    1.20787203
 O          1.60625196   -2.14902306    0.10030300
 H          1.20166898   -1.16268003    1.78329599
 C          1.48209405   -2.20983195   -1.32310903
 H          1.96904194   -3.13468409   -1.62971997
 H          1.98540699   -1.36683297   -1.80597198
 H          0.43349800   -2.23238301   -1.62660003
