27
wb97x-d4 ma-def2-tzvp(-f) cpcm(dmso) E: -727.017780829802, G: -726.82504562
 C         -1.12601197   -0.00576500    0.76559299
 C         -0.96436602    1.49164903    0.39712900
 O          0.14648999   -0.55618799    1.13125598
 C         -1.84299004   -0.84878898   -0.29532099
 H         -1.71941400   -0.08414500    1.67742503
 C          1.14376104   -0.57412499    0.11984600
 C          1.13612902    0.71037197   -0.71644300
 C          0.49992499    1.83319497    0.08931100
 H          0.54323399    0.54612100   -1.61847401
 O          2.44693208    1.03354895   -1.15406096
 O          1.25205505    2.10777497    1.27078795
 H          0.52247500    2.75328588   -0.49859700
 O         -1.78332198    1.77629101   -0.73845798
 H         -1.27800095    2.10854506    1.24355805
 H         -1.39830196   -0.72586501   -1.28508496
 O         -3.23330688   -0.53701001   -0.32752201
 H         -1.75464296   -1.89754903   -0.00812600
 H         -3.28950405    0.37976599   -0.63062900
 H         -1.89543498    2.73198009   -0.79931200
 H          1.14244699    1.36160398    1.87532794
 H          2.93653393    1.35552895   -0.38519999
 O          1.01819301   -1.66501296   -0.74555701
 H          2.08567190   -0.65096599    0.67596000
 C          1.29796600   -2.91661692   -0.12049100
 H          2.28620195   -2.89600396    0.35256401
 H          1.28619802   -3.67200398   -0.90558499
 H          0.54108500   -3.15962195    0.63010198
