27
wb97x-d4 ma-def2-tzvp(-f) cpcm(dmso) E: -727.018280369457, G: -726.82495599
 C         -1.08673096    0.27702299    0.57335103
 C         -0.75192797    1.36366999   -0.45808801
 O          0.09235900   -0.37979501    1.08485603
 C         -2.13419604   -0.70507503    0.06525300
 H         -1.51209295    0.77584398    1.44991899
 C          1.18979895   -0.47731200    0.20016900
 C          1.70215201    0.89941502   -0.27319601
 C          0.61135799    1.97072804   -0.11724400
 H          1.96830702    0.80697900   -1.32693899
 O          2.87899709    1.27788603    0.42078501
 O          0.62812799    2.52717710    1.19687200
 H          0.82084101    2.80328107   -0.78975499
 O         -0.76752102    0.91408402   -1.81000400
 H         -1.51852500    2.13751006   -0.39102700
 H         -2.99029112   -0.12446500   -0.29840001
 O         -2.53752089   -1.63383305    1.06676400
 H         -1.75397897   -1.29784000   -0.76404399
 H         -2.95879412   -1.14384902    1.78293800
 H         -0.26939100    0.08324500   -1.86441004
 H          0.40553001    1.83595097    1.83468401
 H          2.60157609    1.83582103    1.16191399
 O          0.87335199   -1.22885096   -0.95012403
 H          1.97074604   -0.98156798    0.77632898
 C          0.67097300   -2.61896300   -0.68272197
 H         -0.14048000   -2.77011800    0.03261300
 H          1.59266901   -3.05872989   -0.28883100
 H          0.41466200   -3.08821893   -1.63166201
