27
wb97x-d4 ma-def2-tzvp(-f) cpcm(dmso) E: -727.018575280424, G: -726.8249098699999
 C         -0.99168199    0.12237700    0.84026998
 C         -0.86689401    1.26619601   -0.17624500
 O          0.28035700   -0.48042500    1.15751004
 C         -2.00819302   -0.94117498    0.42939901
 H         -1.33595395    0.55683202    1.78241897
 C          1.25629604   -0.47178900    0.13302501
 C          1.61513102    0.95096600   -0.34319001
 C          0.49384499    1.94340098   -0.00129000
 H          1.74119306    0.91104603   -1.42602503
 O          2.85033298    1.38192499    0.20170100
 O          0.65192997    2.45472693    1.32274199
 H          0.56324399    2.81042910   -0.65891898
 O         -1.06510901    0.86060798   -1.52850199
 H         -1.65216506    1.99321604    0.03437000
 H         -1.68977904   -1.46070302   -0.47591200
 O         -3.29571199   -0.35923699    0.24664301
 H         -2.09525990   -1.67339897    1.23403704
 H         -3.27835393    0.11747600   -0.59261799
 H         -0.52168900    0.07449700   -1.69645405
 H          0.55079800    1.73046505    1.95474100
 H          2.64443302    1.88818395    1.00102603
 O          0.83824903   -1.20042801   -0.99844903
 H          2.13523293   -0.94221002    0.58226597
 C          0.80167401   -2.61414409   -0.78515702
 H          1.80789006   -2.98118401   -0.56014597
 H          0.44340599   -3.06328797   -1.71052003
 H          0.12678100   -2.87436509    0.03327600
