27
wb97x-d4 ma-def2-tzvp(-f) cpcm(dmso) E: -727.017180285193, G: -726.82437547
 C         -1.01971805    0.19083101    0.71986902
 C         -0.77989203    1.31678903   -0.29793301
 O          0.20611700   -0.44021401    1.14661598
 C         -2.03205800   -0.85387403    0.27349800
 H         -1.42199397    0.65282601    1.62578797
 C          1.25859702   -0.46782100    0.20297401
 C          1.69714499    0.94217598   -0.24312299
 C          0.57555002    1.96515000   -0.00268300
 H          1.91892099    0.89509201   -1.31004596
 O          2.88913488    1.34058297    0.41257501
 O          0.63657099    2.48405194    1.32607698
 H          0.72185200    2.82463408   -0.65764397
 O         -0.84309500    0.91272002   -1.66095996
 H         -1.56842601    2.05872297   -0.16809000
 H         -1.76868403   -1.27073097   -0.70103598
 O         -3.30117989   -0.20438001    0.21636200
 H         -2.03895998   -1.66232395    1.01245701
 H         -3.92718410   -0.80783498   -0.19846000
 H         -0.32392600    0.09989700   -1.76534903
 H          0.46880099    1.76802194    1.95306504
 H          2.62455106    1.86874700    1.17988300
 O          0.90531999   -1.18887901   -0.95532602
 H          2.08449793   -0.96414000    0.72002101
 C          0.78171599   -2.59683394   -0.73751903
 H          0.48697200   -3.03785110   -1.68874800
 H          0.02453000   -2.81644511    0.01819800
 H          1.74484205   -3.00891304   -0.42046401
