27
wb97x-d4 ma-def2-tzvp(-f) cpcm(dmso) E: -727.016365057725, G: -726.82435111
 C         -1.14448500    0.25870800    0.53767502
 C         -0.76085502    1.33648205   -0.48295000
 O          0.00590400   -0.40984699    1.09951103
 C         -2.17120409   -0.72289801   -0.00936900
 H         -1.59705901    0.76856101    1.39279306
 C          1.15210903   -0.48241800    0.28402299
 C          1.67626798    0.90275002   -0.13129300
 C          0.56697899    1.96954799   -0.05274800
 H          2.01898408    0.83555502   -1.16722405
 O          2.76900101    1.19648695    0.72896302
 O          0.45025700    2.54968405    1.24013698
 H          0.80869502    2.79080796   -0.73066002
 O         -0.69118601    0.87663299   -1.83024895
 H         -1.53965294    2.10098910   -0.46762401
 H         -3.00240707   -0.14415500   -0.42936301
 O         -2.63655591   -1.63214302    0.98463899
 H         -1.74887300   -1.33204603   -0.80631799
 H         -3.09725499   -1.12605000    1.66440594
 H         -0.18007800    0.05193500   -1.84798300
 H          0.51832300    1.84863997    1.90048003
 H          3.03362989    2.11304808    0.58399802
 O          0.92171001   -1.22427499   -0.89300799
 H          1.90363300   -0.98470098    0.89983600
 C          0.72139901   -2.61948895   -0.65217298
 H          1.62025702   -3.05043292   -0.20008899
 H          0.53677398   -3.08259797   -1.62044597
 H         -0.13431200   -2.78877497    0.00504000
