27
wb97x-d4 ma-def2-tzvp(-f) cpcm(dmso) E: -727.017825541842, G: -726.82430964
 C         -1.01393199    0.15343700    0.70662802
 C         -0.81802398    1.27924001   -0.31970999
 O          0.23278899   -0.45899999    1.10266995
 C         -2.02623606   -0.90976602    0.28754500
 H         -1.39521503    0.61364901    1.62370098
 C          1.26016605   -0.47358799    0.13165200
 C          1.66447997    0.94139999   -0.33124900
 C          0.53494799    1.94842398   -0.06285600
 H          1.85653102    0.89359999   -1.40386999
 O          2.86850309    1.36037695    0.28853300
 O          0.62380397    2.47098708    1.26306200
 H          0.65121102    2.80844402   -0.72308600
 O         -0.91136199    0.86883998   -1.67928803
 H         -1.61368299    2.01010799   -0.17166901
 H         -1.77581596   -1.33359301   -0.68391800
 O         -3.32908392   -0.34809101    0.15968201
 H         -2.01241112   -1.71343005    1.03068101
 H         -3.64747691   -0.11997800    1.04110599
 H         -0.38124600    0.06477600   -1.79546106
 H          0.48392400    1.75335801    1.89504004
 H          2.61778212    1.88278198    1.06439996
 O          0.88793099   -1.20483899   -1.01452398
 H          2.10749197   -0.95474100    0.62792802
 C          0.79950702   -2.61453700   -0.79064602
 H          0.06577600   -2.84827805   -0.01628700
 H          1.77863503   -3.00541902   -0.49658000
 H          0.49100500   -3.06416106   -1.73348606
