27
wb97x-d4 ma-def2-tzvp(-f) cpcm(dmso) E: -727.016491536401, G: -726.82422418
 C         -1.09628403   -0.00883700    0.82969803
 C         -0.92914402    1.48790300    0.45547599
 O          0.17737800   -0.57764798    1.16650403
 C         -1.84793198   -0.84521598   -0.21136200
 H         -1.66740704   -0.07929600    1.75622702
 C          1.16086400   -0.58933401    0.14357600
 C          1.14649999    0.70443302   -0.66581798
 C          0.54434699    1.82262695    0.17791300
 H          0.50540501    0.56516403   -1.54245102
 O          2.48488688    0.95490700   -1.07352901
 O          1.26541102    2.05871892    1.38262701
 H          0.58204699    2.75932908   -0.38404101
 O         -1.72749805    1.76928306   -0.69614500
 H         -1.25764000    2.10846090    1.29306304
 H         -1.41688395   -0.73994201   -1.20901203
 O         -3.23135591   -0.50306100   -0.22249700
 H         -1.77687204   -1.89326298    0.08364500
 H         -3.27244902    0.41018301   -0.53859103
 H         -1.84104800    2.72469592   -0.75817102
 H          1.16995203    1.27748203    1.94316697
 H          2.46779704    1.63265300   -1.75956905
 O          1.01411402   -1.66649199   -0.73618001
 H          2.11108494   -0.67770302    0.68205100
 C          1.30239701   -2.92750692   -0.13432001
 H          0.55951202   -3.17907906    0.62740397
 H          2.29969406   -2.91648698    0.31965700
 H          1.27312303   -3.67197490   -0.92932302
