27
wb97x-d4 ma-def2-tzvp(-f) cpcm(dmso) E: -727.016859610272, G: -726.82407443
 C         -1.10367894    0.12643801    0.74203700
 C         -0.87029898    1.62042797    0.37262601
 O          0.12583099   -0.48548600    1.14537501
 C         -1.82338798   -0.68386197   -0.33367100
 H         -1.72746897    0.07919200    1.63616800
 C          1.15310204   -0.54049498    0.16548599
 C          1.23651803    0.75150198   -0.65534598
 C          0.61617100    1.89670300    0.13117801
 H          0.67868698    0.62187999   -1.58468902
 O          2.57989001    1.02043796   -1.02860105
 O          1.33361804    2.12994194    1.34272099
 H          0.69976503    2.81715107   -0.44902101
 O         -1.55535698    2.01928902   -0.80942500
 H         -1.18871105    2.24305892    1.21536505
 H         -1.35196900   -0.58274502   -1.31278503
 O         -3.16560006   -0.17758600   -0.37420800
 H         -1.81482100   -1.73773396   -0.04287800
 H         -3.62575889   -0.59765702   -1.11019099
 H         -2.42040300    1.58039904   -0.80857402
 H          1.16258299    1.38886905    1.93918598
 H          3.04059291    1.32935095   -0.23658299
 O          0.99930000   -1.61396694   -0.71748102
 H          2.07112408   -0.67071402    0.75037903
 C          1.19824100   -2.88554502   -0.10180600
 H          1.16129506   -3.63029504   -0.89616299
 H          0.41413999   -3.09494591    0.63070798
 H          2.17659497   -2.92360902    0.39019501
