27
wb97x-d4 ma-def2-tzvp(-f) cpcm(dmso) E: -727.025832403005, G: -726.83491579
 C         -1.25698495   -0.00398600    0.23645601
 C         -1.02253699    1.44883800   -0.16958700
 O         -0.31514600   -0.83213699   -0.45111501
 C         -2.64027309   -0.53163099   -0.12114400
 H         -1.10495603   -0.09185000    1.31962097
 C          1.01442599   -0.57772303   -0.00999300
 C          1.40935397    0.84140599   -0.39710501
 C          0.41622400    1.85364294    0.16987500
 H          1.39678597    0.90154499   -1.49198604
 O          2.69374394    1.17810404    0.10840600
 O          0.51293898    1.92195106    1.58880496
 H          0.62203902    2.83506703   -0.27198899
 O         -1.28786802    1.65973902   -1.55133104
 H         -1.70339704    2.09721088    0.38421500
 H         -2.80005193   -0.45506200   -1.19766498
 O         -3.67098403    0.22587900    0.50215501
 H         -2.69788098   -1.58736205    0.16269000
 H         -3.64358306    0.05304400    1.45055401
 H         -0.90300399    0.92700499   -2.04925394
 H          1.45080900    1.99282706    1.80831897
 H          3.31505609    0.49783301   -0.17947400
 O          1.87822700   -1.45178401   -0.65509498
 H          1.06222606   -0.71743798    1.08014297
 C          1.82007802   -2.79010606   -0.15551300
 H          0.84224200   -3.23702407   -0.35084999
 H          2.02209997   -2.80372906    0.92062300
 H          2.59041810   -3.35425997   -0.67976099
