27
wb97x-d4 ma-def2-tzvp(-f) cpcm(dmso) E: -727.015938233209, G: -726.82390074
 C         -1.06947803    0.08385400    0.81945002
 C         -0.81071597    1.57819498    0.47789100
 O          0.15074600   -0.57975298    1.14223695
 C         -1.87035501   -0.68172503   -0.23408900
 H         -1.65223002    0.03410300    1.74126196
 C          1.13621902   -0.62471801    0.12891200
 C          1.17125297    0.64200997   -0.73311597
 C          0.64144498    1.82777596    0.04927800
 H          0.53324902    0.49308100   -1.60613000
 O          2.48193598    0.86959600   -1.23055506
 O          1.51518404    2.02518296    1.15959597
 H          0.64884102    2.71068192   -0.59687901
 O         -1.63283503    2.05175805   -0.58465099
 H         -0.99077803    2.17415690    1.37930000
 H         -1.46134400   -0.55930799   -1.23907197
 O         -3.20786905   -0.16336501   -0.17580600
 H         -1.85666800   -1.74354804    0.02582100
 H         -3.71140003   -0.53941101   -0.90718299
 H         -2.48614812    1.59328306   -0.52791500
 H          1.41005599    2.93057394    1.47212398
 H          3.00743508    1.21279597   -0.49521101
 O          0.96098799   -1.71703601   -0.73543799
 H          2.08243990   -0.73318100    0.67066801
 C          1.20465398   -2.97468400   -0.11017700
 H          0.45463300   -3.18587494    0.65701002
 H          2.20245004   -2.99103189    0.34304401
 H          1.14829195   -3.73341489   -0.89037198
