27
wb97x-d4 ma-def2-tzvp(-f) cpcm(dmso) E: -727.014539965157, G: -726.82349043
 C         -1.33397603   -0.25305700    0.62663299
 C         -0.83273298    1.19248104    0.41013199
 O         -0.30522501   -1.19187605    0.28898701
 C         -2.52426195   -0.62784398   -0.25191700
 H         -1.61258304   -0.39137101    1.67821002
 C          0.97037297   -0.79410398    0.75860798
 C          1.48784494    0.39947999   -0.06558400
 C          0.29326200    1.18874705   -0.61723298
 H          2.11104989    0.06361100   -0.89468497
 O          2.24993610    1.25112903    0.79199398
 O          0.66110897    2.51514006   -0.96147400
 H         -0.06112900    0.71175802   -1.53341901
 O         -1.91078305    2.01343393   -0.02922500
 H         -0.44313201    1.59230196    1.35435402
 H         -2.31170511   -0.37776399   -1.29725897
 O         -3.73159790   -0.01906100    0.18579100
 H         -2.66596699   -1.70785797   -0.18047599
 H         -3.59911108    0.93451399    0.09482200
 H         -1.52086496    2.84112692   -0.34066501
 H          1.29630995    2.80279994   -0.28818801
 H          3.17194295    1.22524500    0.51715899
 O          1.82828498   -1.89325702    0.76378202
 H          0.90031701   -0.47725001    1.80656505
 C          1.93801296   -2.60295510   -0.47344401
 H          2.23875594   -1.94741905   -1.29528701
 H          0.99568999   -3.09201908   -0.72751999
 H          2.71017694   -3.35593200   -0.32066199
