27
wb97x-d4 ma-def2-tzvp(-f) cpcm(dmso) E: -727.013257741015, G: -726.82305518
 C         -1.40083003   -0.28412700    0.46774599
 C         -0.85730600    1.10806096    0.78293997
 O         -0.33711499   -1.24112999    0.37958500
 C         -2.26215100   -0.35003701   -0.79904801
 H         -2.03145289   -0.59337699    1.30664206
 C          0.98337400   -0.74825102    0.17327701
 C          0.95998400    0.40690899   -0.81540602
 C          0.16814600    1.59471202   -0.24151100
 H          0.45259801    0.04363700   -1.71598005
 O          2.26441789    0.85398197   -1.13891399
 O          1.00690603    2.51560998    0.44602099
 H         -0.34962299    2.10574389   -1.06048095
 O         -1.97534299    1.98738205    0.87872303
 H         -0.34667799    1.05979002    1.75113797
 H         -1.76778495    0.14261600   -1.64382195
 O         -3.55780911    0.20304000   -0.58892798
 H         -2.40188599   -1.40173805   -1.05532098
 H         -3.42494798    1.10121095   -0.25542101
 H         -1.65379906    2.86981702    1.09907603
 H          1.77206504    2.68803191   -0.11747600
 H          2.77263808    0.08381100   -1.42341197
 O          1.74435604   -1.76755905   -0.38992101
 H          1.42266798   -0.44586900    1.13490403
 C          2.12464309   -2.78582501    0.53767598
 H          2.64304805   -2.34522009    1.39577794
 H          2.80043006   -3.45658207    0.00857700
 H          1.25145102   -3.34463906    0.88355601
