27
wb97x-d4 ma-def2-tzvp(-f) cpcm(dmso) E: -727.015810664576, G: -726.8228354199999
 C         -1.33421195    0.57882702    0.52423900
 C         -0.70280898    1.36145794   -0.63266098
 O         -0.36074701   -0.19305600    1.26875806
 C         -2.50656796   -0.29555100    0.10736000
 H         -1.71030498    1.30180097    1.25284195
 C          0.75494099   -0.65309900    0.55507600
 C          1.58284903    0.49817500   -0.06491400
 C          0.72123301    1.76074302   -0.23611300
 H          1.92801094    0.17294000   -1.04770195
 O          2.73779511    0.78066403    0.70775598
 O          0.73508698    2.55140710    0.95229000
 H          1.15384805    2.39334011   -1.01197195
 O         -0.69575101    0.67188901   -1.87837005
 H         -1.29831600    2.26245189   -0.78991401
 H         -3.26061797    0.33530101   -0.36899400
 O         -3.12452888   -0.89730299    1.24207604
 H         -2.19041896   -1.06022096   -0.60408902
 H         -2.45085907   -1.42827106    1.68491101
 H         -0.36401400   -0.22806600   -1.72579098
 H          0.32178801    2.05357099    1.67020500
 H          2.51314807    1.52334201    1.28705704
 O          0.29919800   -1.54967499   -0.44936100
 H          1.37171900   -1.19339204    1.27913105
 C          1.28855503   -2.49869990   -0.84871602
 H          2.16090202   -2.00884104   -1.29240298
 H          0.82325900   -3.14384604   -1.59260094
 H          1.60681295   -3.09589195    0.01190100
