27
wb97x-d4 ma-def2-tzvp(-f) cpcm(dmso) E: -727.015326275785, G: -726.82183509
 C         -1.14359701    0.34410200    0.97256702
 C         -0.88306701    1.21835101   -0.26215401
 O          0.04256800   -0.34599400    1.42247105
 C         -2.29296589   -0.64557499    0.78602302
 H         -1.40907204    1.00904703    1.79835904
 C          0.98847198   -0.67431498    0.44135699
 C          1.54377496    0.56689602   -0.29327500
 C          0.55416697    1.74074304   -0.20754001
 H          1.68182194    0.30116001   -1.34273195
 O          2.81339502    0.94450301    0.21232501
 O          0.78108197    2.51028204    0.97389102
 H          0.72969598    2.42529106   -1.03802001
 O         -1.14320004    0.55951202   -1.49840498
 H         -1.56665003    2.06745195   -0.22659700
 H         -2.03402591   -1.40208602    0.04356500
 O         -3.49108410    0.03751100    0.42775801
 H         -2.48004603   -1.14709401    1.73726404
 H         -3.40730691    0.29315200   -0.49931401
 H         -0.69426900   -0.30216300   -1.48366106
 H          0.57466501    1.97186196    1.74946296
 H          2.65947795    1.65397298    0.85341901
 O          0.38490999   -1.57292795   -0.48053101
 H          1.80269599   -1.17906594    0.96940702
 C          1.32573700   -2.42386699   -1.13505101
 H          1.86768794   -3.02341294   -0.39651600
 H          2.04138494   -1.84965801   -1.73208594
 H          0.75374800   -3.07767797   -1.79198396
