27
wb97x-d4 ma-def2-tzvp(-f) cpcm(dmso) E: -727.014645267371, G: -726.82180084
 C         -1.44885397    0.47935900    0.68776798
 C         -0.90040398    1.78282595    0.06380500
 O         -0.39299700   -0.19290100    1.40030706
 C         -2.15560699   -0.44261000   -0.30938199
 H         -2.16275406    0.72147298    1.47565401
 C          0.68069500   -0.66747999    0.63024199
 C          1.08616304    0.33013600   -0.47431001
 C          0.62784600    1.72571194   -0.07371700
 H          0.60903299    0.05197100   -1.41612899
 O          2.48746300    0.28918400   -0.70375502
 O          1.29422104    2.14342093    1.11910498
 H          0.93070501    2.43642092   -0.84587598
 O         -1.51492298    1.97687101   -1.20602703
 H         -1.13461304    2.62286592    0.72481400
 H         -3.06798410    0.05072500   -0.64382797
 O         -2.53763509   -1.66429603    0.30901000
 H         -1.53686702   -0.63650799   -1.18848705
 H         -1.71531701   -2.14560103    0.47887200
 H         -1.31576097    2.87444401   -1.49720204
 H          0.93130702    1.63890600    1.85915399
 H          2.90978694    0.74882501    0.03493200
 O          0.31779200   -1.94211805    0.13399400
 H          1.52082300   -0.78557497    1.32550395
 C          1.41666305   -2.69476509   -0.37506399
 H          1.79708898   -2.26573491   -1.30611002
 H          1.04602695   -3.70174193   -0.56332898
 H          2.22810006   -2.73381209    0.36005399
