27
wb97x-d4 ma-def2-tzvp(-f) cpcm(dmso) E: -727.012812966141, G: -726.82143723
 C         -1.28906703   -0.18794701    0.80814803
 C         -1.10888302    1.33935702    0.75645101
 O         -0.03329500   -0.81018198    1.09271300
 C         -2.07571101   -0.80462998   -0.35792401
 H         -1.88746202   -0.42205599    1.69160104
 C          1.06210303   -0.57289398    0.23379201
 C          0.89435899    0.65841198   -0.64635098
 C          0.22038899    1.78472495    0.11577300
 H          0.26734000    0.39050400   -1.49622405
 O          2.16435099    1.13383198   -1.08659697
 O          1.06503606    2.25990891    1.16267300
 H          0.00531800    2.59544706   -0.59056801
 O         -2.25229502    1.87339997    0.09265500
 H         -1.07341099    1.70382798    1.78721201
 H         -1.85322702   -1.87330401   -0.37965101
 O         -1.80708694   -0.29563200   -1.66005695
 H         -3.13892007   -0.68567699   -0.12731700
 H         -2.15835595    0.60418397   -1.67735100
 H         -2.21705794    2.83554506    0.14896500
 H          1.94449902    2.38381004    0.78245199
 H          2.62657905    0.40317500   -1.51502204
 O          1.29252005   -1.65462005   -0.63437700
 H          1.92856205   -0.44818699    0.89318401
 C          1.76238203   -2.82395792    0.03261800
 H          2.01139092   -3.55206990   -0.73899001
 H          0.99244398   -3.23842406    0.68912798
 H          2.65750098   -2.59654593    0.62306702
