27
wb97x-d4 ma-def2-tzvp(-f) cpcm(dmso) E: -727.013299724118, G: -726.8207885099999
 C         -1.19059503    0.33818200    0.87672198
 C         -0.84526598    1.39852703   -0.19057401
 O         -0.03480400   -0.36020699    1.37444103
 C         -2.26505804   -0.64670402    0.42318001
 H         -1.56576896    0.86772698    1.75684297
 C          0.96631199   -0.72905302    0.46117300
 C          1.44164300    0.44793701   -0.43010899
 C          0.64535201    1.71416795   -0.12870000
 H          1.27841198    0.17961200   -1.47320998
 O          2.83576393    0.67923802   -0.28155899
 O          1.01639998    2.26948309    1.13219297
 H          0.88741797    2.47445393   -0.87300801
 O         -1.11652303    0.97923899   -1.52453601
 H         -1.40979397    2.30811095    0.03256900
 H         -1.90881002   -1.24239600   -0.41444600
 O         -3.42249799    0.05530400   -0.03613500
 H         -2.51184702   -1.31726098    1.25153995
 H         -3.83003807    0.50220603    0.71564800
 H         -2.07443404    0.87276399   -1.59405196
 H          0.80193901    1.62376201    1.81958103
 H          2.95303106    1.21534705    0.51484400
 O          0.50036502   -1.82479501   -0.29958099
 H          1.80828297   -1.05422401    1.08340895
 C          1.56114697   -2.54014707   -0.92516899
 H          2.28601694   -2.88548899   -0.17860200
 H          2.08008909   -1.92645800   -1.66938806
 H          1.11326504   -3.39932609   -1.42307401
